* Nettran: AMD.64 Release B-2008.09.SP5.HF2.26004 2012/07/19
* Created:  6/22/2016  14:24
* Options: -verilog netlist.v -outName netlist.sp -verilog-b1 VDD -verilog-b0 GND -outType spice 

.GLOBAL VDD GND 

.SUBCKT Fetch2Decode clk instruction0Valid_i inst0Packet_i[132] inst0Packet_i[131] 
+ inst0Packet_i[130] inst0Packet_i[129] inst0Packet_i[128] inst0Packet_i[127] inst0Packet_i[126] 
+ inst0Packet_i[125] inst0Packet_i[124] inst0Packet_i[123] inst0Packet_i[122] inst0Packet_i[121] 
+ inst0Packet_i[120] inst0Packet_i[119] inst0Packet_i[118] inst0Packet_i[117] inst0Packet_i[116] 
+ inst0Packet_i[115] inst0Packet_i[114] inst0Packet_i[113] inst0Packet_i[112] inst0Packet_i[111] 
+ inst0Packet_i[110] inst0Packet_i[109] inst0Packet_i[108] inst0Packet_i[107] inst0Packet_i[106] 
+ inst0Packet_i[105] inst0Packet_i[104] inst0Packet_i[103] inst0Packet_i[102] inst0Packet_i[101] 
+ inst0Packet_i[100] inst0Packet_i[99] inst0Packet_i[98] inst0Packet_i[97] inst0Packet_i[96] 
+ inst0Packet_i[95] inst0Packet_i[94] inst0Packet_i[93] inst0Packet_i[92] inst0Packet_i[91] 
+ inst0Packet_i[90] inst0Packet_i[89] inst0Packet_i[88] inst0Packet_i[87] inst0Packet_i[86] 
+ inst0Packet_i[85] inst0Packet_i[84] inst0Packet_i[83] inst0Packet_i[82] inst0Packet_i[81] 
+ inst0Packet_i[80] inst0Packet_i[79] inst0Packet_i[78] inst0Packet_i[77] inst0Packet_i[76] 
+ inst0Packet_i[75] inst0Packet_i[74] inst0Packet_i[73] inst0Packet_i[72] inst0Packet_i[71] 
+ inst0Packet_i[70] inst0Packet_i[69] inst0Packet_i[68] inst0Packet_i[67] inst0Packet_i[66] 
+ inst0Packet_i[65] inst0Packet_i[64] inst0Packet_i[63] inst0Packet_i[62] inst0Packet_i[61] 
+ inst0Packet_i[60] inst0Packet_i[59] inst0Packet_i[58] inst0Packet_i[57] inst0Packet_i[56] 
+ inst0Packet_i[55] inst0Packet_i[54] inst0Packet_i[53] inst0Packet_i[52] inst0Packet_i[51] 
+ inst0Packet_i[50] inst0Packet_i[49] inst0Packet_i[48] inst0Packet_i[47] inst0Packet_i[46] 
+ inst0Packet_i[45] inst0Packet_i[44] inst0Packet_i[43] inst0Packet_i[42] inst0Packet_i[41] 
+ inst0Packet_i[40] inst0Packet_i[39] inst0Packet_i[38] inst0Packet_i[37] inst0Packet_i[36] 
+ inst0Packet_i[35] inst0Packet_i[34] inst0Packet_i[33] inst0Packet_i[32] inst0Packet_i[31] 
+ inst0Packet_i[30] inst0Packet_i[29] inst0Packet_i[28] inst0Packet_i[27] inst0Packet_i[26] 
+ inst0Packet_i[25] inst0Packet_i[24] inst0Packet_i[23] inst0Packet_i[22] inst0Packet_i[21] 
+ inst0Packet_i[20] inst0Packet_i[19] inst0Packet_i[18] inst0Packet_i[17] inst0Packet_i[16] 
+ inst0Packet_i[15] inst0Packet_i[14] inst0Packet_i[13] inst0Packet_i[12] inst0Packet_i[11] 
+ inst0Packet_i[10] inst0Packet_i[9] inst0Packet_i[8] inst0Packet_i[7] inst0Packet_i[6] 
+ inst0Packet_i[5] inst0Packet_i[4] inst0Packet_i[3] inst0Packet_i[2] inst0Packet_i[1] 
+ inst0Packet_i[0] instruction0Valid_o inst0Packet_o[132] inst0Packet_o[131] inst0Packet_o[130] 
+ inst0Packet_o[129] inst0Packet_o[128] inst0Packet_o[127] inst0Packet_o[126] inst0Packet_o[125] 
+ inst0Packet_o[124] inst0Packet_o[123] inst0Packet_o[122] inst0Packet_o[121] inst0Packet_o[120] 
+ inst0Packet_o[119] inst0Packet_o[118] inst0Packet_o[117] inst0Packet_o[116] inst0Packet_o[115] 
+ inst0Packet_o[114] inst0Packet_o[113] inst0Packet_o[112] inst0Packet_o[111] inst0Packet_o[110] 
+ inst0Packet_o[109] inst0Packet_o[108] inst0Packet_o[107] inst0Packet_o[106] inst0Packet_o[105] 
+ inst0Packet_o[104] inst0Packet_o[103] inst0Packet_o[102] inst0Packet_o[101] inst0Packet_o[100] 
+ inst0Packet_o[99] inst0Packet_o[98] inst0Packet_o[97] inst0Packet_o[96] inst0Packet_o[95] 
+ inst0Packet_o[94] inst0Packet_o[93] inst0Packet_o[92] inst0Packet_o[91] inst0Packet_o[90] 
+ inst0Packet_o[89] inst0Packet_o[88] inst0Packet_o[87] inst0Packet_o[86] inst0Packet_o[85] 
+ inst0Packet_o[84] inst0Packet_o[83] inst0Packet_o[82] inst0Packet_o[81] inst0Packet_o[80] 
+ inst0Packet_o[79] inst0Packet_o[78] inst0Packet_o[77] inst0Packet_o[76] inst0Packet_o[75] 
+ inst0Packet_o[74] inst0Packet_o[73] inst0Packet_o[72] inst0Packet_o[71] inst0Packet_o[70] 
+ inst0Packet_o[69] inst0Packet_o[68] inst0Packet_o[67] inst0Packet_o[66] inst0Packet_o[65] 
+ inst0Packet_o[64] inst0Packet_o[63] inst0Packet_o[62] inst0Packet_o[61] inst0Packet_o[60] 
+ inst0Packet_o[59] inst0Packet_o[58] inst0Packet_o[57] inst0Packet_o[56] inst0Packet_o[55] 
+ inst0Packet_o[54] inst0Packet_o[53] inst0Packet_o[52] inst0Packet_o[51] inst0Packet_o[50] 
+ inst0Packet_o[49] inst0Packet_o[48] inst0Packet_o[47] inst0Packet_o[46] inst0Packet_o[45] 
+ inst0Packet_o[44] inst0Packet_o[43] inst0Packet_o[42] inst0Packet_o[41] inst0Packet_o[40] 
+ inst0Packet_o[39] inst0Packet_o[38] inst0Packet_o[37] inst0Packet_o[36] inst0Packet_o[35] 
+ inst0Packet_o[34] inst0Packet_o[33] inst0Packet_o[32] inst0Packet_o[31] inst0Packet_o[30] 
+ inst0Packet_o[29] inst0Packet_o[28] inst0Packet_o[27] inst0Packet_o[26] inst0Packet_o[25] 
+ inst0Packet_o[24] inst0Packet_o[23] inst0Packet_o[22] inst0Packet_o[21] inst0Packet_o[20] 
+ inst0Packet_o[19] inst0Packet_o[18] inst0Packet_o[17] inst0Packet_o[16] inst0Packet_o[15] 
+ inst0Packet_o[14] inst0Packet_o[13] inst0Packet_o[12] inst0Packet_o[11] inst0Packet_o[10] 
+ inst0Packet_o[9] inst0Packet_o[8] inst0Packet_o[7] inst0Packet_o[6] inst0Packet_o[5] 
+ inst0Packet_o[4] inst0Packet_o[3] inst0Packet_o[2] inst0Packet_o[1] inst0Packet_o[0] 
+ instruction1Valid_i inst1Packet_i[132] inst1Packet_i[131] inst1Packet_i[130] inst1Packet_i[129] 
+ inst1Packet_i[128] inst1Packet_i[127] inst1Packet_i[126] inst1Packet_i[125] inst1Packet_i[124] 
+ inst1Packet_i[123] inst1Packet_i[122] inst1Packet_i[121] inst1Packet_i[120] inst1Packet_i[119] 
+ inst1Packet_i[118] inst1Packet_i[117] inst1Packet_i[116] inst1Packet_i[115] inst1Packet_i[114] 
+ inst1Packet_i[113] inst1Packet_i[112] inst1Packet_i[111] inst1Packet_i[110] inst1Packet_i[109] 
+ inst1Packet_i[108] inst1Packet_i[107] inst1Packet_i[106] inst1Packet_i[105] inst1Packet_i[104] 
+ inst1Packet_i[103] inst1Packet_i[102] inst1Packet_i[101] inst1Packet_i[100] inst1Packet_i[99] 
+ inst1Packet_i[98] inst1Packet_i[97] inst1Packet_i[96] inst1Packet_i[95] inst1Packet_i[94] 
+ inst1Packet_i[93] inst1Packet_i[92] inst1Packet_i[91] inst1Packet_i[90] inst1Packet_i[89] 
+ inst1Packet_i[88] inst1Packet_i[87] inst1Packet_i[86] inst1Packet_i[85] inst1Packet_i[84] 
+ inst1Packet_i[83] inst1Packet_i[82] inst1Packet_i[81] inst1Packet_i[80] inst1Packet_i[79] 
+ inst1Packet_i[78] inst1Packet_i[77] inst1Packet_i[76] inst1Packet_i[75] inst1Packet_i[74] 
+ inst1Packet_i[73] inst1Packet_i[72] inst1Packet_i[71] inst1Packet_i[70] inst1Packet_i[69] 
+ inst1Packet_i[68] inst1Packet_i[67] inst1Packet_i[66] inst1Packet_i[65] inst1Packet_i[64] 
+ inst1Packet_i[63] inst1Packet_i[62] inst1Packet_i[61] inst1Packet_i[60] inst1Packet_i[59] 
+ inst1Packet_i[58] inst1Packet_i[57] inst1Packet_i[56] inst1Packet_i[55] inst1Packet_i[54] 
+ inst1Packet_i[53] inst1Packet_i[52] inst1Packet_i[51] inst1Packet_i[50] inst1Packet_i[49] 
+ inst1Packet_i[48] inst1Packet_i[47] inst1Packet_i[46] inst1Packet_i[45] inst1Packet_i[44] 
+ inst1Packet_i[43] inst1Packet_i[42] inst1Packet_i[41] inst1Packet_i[40] inst1Packet_i[39] 
+ inst1Packet_i[38] inst1Packet_i[37] inst1Packet_i[36] inst1Packet_i[35] inst1Packet_i[34] 
+ inst1Packet_i[33] inst1Packet_i[32] inst1Packet_i[31] inst1Packet_i[30] inst1Packet_i[29] 
+ inst1Packet_i[28] inst1Packet_i[27] inst1Packet_i[26] inst1Packet_i[25] inst1Packet_i[24] 
+ inst1Packet_i[23] inst1Packet_i[22] inst1Packet_i[21] inst1Packet_i[20] inst1Packet_i[19] 
+ inst1Packet_i[18] inst1Packet_i[17] inst1Packet_i[16] inst1Packet_i[15] inst1Packet_i[14] 
+ inst1Packet_i[13] inst1Packet_i[12] inst1Packet_i[11] inst1Packet_i[10] inst1Packet_i[9] 
+ inst1Packet_i[8] inst1Packet_i[7] inst1Packet_i[6] inst1Packet_i[5] inst1Packet_i[4] 
+ inst1Packet_i[3] inst1Packet_i[2] inst1Packet_i[1] inst1Packet_i[0] instruction1Valid_o 
+ inst1Packet_o[132] inst1Packet_o[131] inst1Packet_o[130] inst1Packet_o[129] inst1Packet_o[128] 
+ inst1Packet_o[127] inst1Packet_o[126] inst1Packet_o[125] inst1Packet_o[124] inst1Packet_o[123] 
+ inst1Packet_o[122] inst1Packet_o[121] inst1Packet_o[120] inst1Packet_o[119] inst1Packet_o[118] 
+ inst1Packet_o[117] inst1Packet_o[116] inst1Packet_o[115] inst1Packet_o[114] inst1Packet_o[113] 
+ inst1Packet_o[112] inst1Packet_o[111] inst1Packet_o[110] inst1Packet_o[109] inst1Packet_o[108] 
+ inst1Packet_o[107] inst1Packet_o[106] inst1Packet_o[105] inst1Packet_o[104] inst1Packet_o[103] 
+ inst1Packet_o[102] inst1Packet_o[101] inst1Packet_o[100] inst1Packet_o[99] inst1Packet_o[98] 
+ inst1Packet_o[97] inst1Packet_o[96] inst1Packet_o[95] inst1Packet_o[94] inst1Packet_o[93] 
+ inst1Packet_o[92] inst1Packet_o[91] inst1Packet_o[90] inst1Packet_o[89] inst1Packet_o[88] 
+ inst1Packet_o[87] inst1Packet_o[86] inst1Packet_o[85] inst1Packet_o[84] inst1Packet_o[83] 
+ inst1Packet_o[82] inst1Packet_o[81] inst1Packet_o[80] inst1Packet_o[79] inst1Packet_o[78] 
+ inst1Packet_o[77] inst1Packet_o[76] inst1Packet_o[75] inst1Packet_o[74] inst1Packet_o[73] 
+ inst1Packet_o[72] inst1Packet_o[71] inst1Packet_o[70] inst1Packet_o[69] inst1Packet_o[68] 
+ inst1Packet_o[67] inst1Packet_o[66] inst1Packet_o[65] inst1Packet_o[64] inst1Packet_o[63] 
+ inst1Packet_o[62] inst1Packet_o[61] inst1Packet_o[60] inst1Packet_o[59] inst1Packet_o[58] 
+ inst1Packet_o[57] inst1Packet_o[56] inst1Packet_o[55] inst1Packet_o[54] inst1Packet_o[53] 
+ inst1Packet_o[52] inst1Packet_o[51] inst1Packet_o[50] inst1Packet_o[49] inst1Packet_o[48] 
+ inst1Packet_o[47] inst1Packet_o[46] inst1Packet_o[45] inst1Packet_o[44] inst1Packet_o[43] 
+ inst1Packet_o[42] inst1Packet_o[41] inst1Packet_o[40] inst1Packet_o[39] inst1Packet_o[38] 
+ inst1Packet_o[37] inst1Packet_o[36] inst1Packet_o[35] inst1Packet_o[34] inst1Packet_o[33] 
+ inst1Packet_o[32] inst1Packet_o[31] inst1Packet_o[30] inst1Packet_o[29] inst1Packet_o[28] 
+ inst1Packet_o[27] inst1Packet_o[26] inst1Packet_o[25] inst1Packet_o[24] inst1Packet_o[23] 
+ inst1Packet_o[22] inst1Packet_o[21] inst1Packet_o[20] inst1Packet_o[19] inst1Packet_o[18] 
+ inst1Packet_o[17] inst1Packet_o[16] inst1Packet_o[15] inst1Packet_o[14] inst1Packet_o[13] 
+ inst1Packet_o[12] inst1Packet_o[11] inst1Packet_o[10] inst1Packet_o[9] inst1Packet_o[8] 
+ inst1Packet_o[7] inst1Packet_o[6] inst1Packet_o[5] inst1Packet_o[4] inst1Packet_o[3] 
+ inst1Packet_o[2] inst1Packet_o[1] inst1Packet_o[0] instruction2Valid_i inst2Packet_i[132] 
+ inst2Packet_i[131] inst2Packet_i[130] inst2Packet_i[129] inst2Packet_i[128] inst2Packet_i[127] 
+ inst2Packet_i[126] inst2Packet_i[125] inst2Packet_i[124] inst2Packet_i[123] inst2Packet_i[122] 
+ inst2Packet_i[121] inst2Packet_i[120] inst2Packet_i[119] inst2Packet_i[118] inst2Packet_i[117] 
+ inst2Packet_i[116] inst2Packet_i[115] inst2Packet_i[114] inst2Packet_i[113] inst2Packet_i[112] 
+ inst2Packet_i[111] inst2Packet_i[110] inst2Packet_i[109] inst2Packet_i[108] inst2Packet_i[107] 
+ inst2Packet_i[106] inst2Packet_i[105] inst2Packet_i[104] inst2Packet_i[103] inst2Packet_i[102] 
+ inst2Packet_i[101] inst2Packet_i[100] inst2Packet_i[99] inst2Packet_i[98] inst2Packet_i[97] 
+ inst2Packet_i[96] inst2Packet_i[95] inst2Packet_i[94] inst2Packet_i[93] inst2Packet_i[92] 
+ inst2Packet_i[91] inst2Packet_i[90] inst2Packet_i[89] inst2Packet_i[88] inst2Packet_i[87] 
+ inst2Packet_i[86] inst2Packet_i[85] inst2Packet_i[84] inst2Packet_i[83] inst2Packet_i[82] 
+ inst2Packet_i[81] inst2Packet_i[80] inst2Packet_i[79] inst2Packet_i[78] inst2Packet_i[77] 
+ inst2Packet_i[76] inst2Packet_i[75] inst2Packet_i[74] inst2Packet_i[73] inst2Packet_i[72] 
+ inst2Packet_i[71] inst2Packet_i[70] inst2Packet_i[69] inst2Packet_i[68] inst2Packet_i[67] 
+ inst2Packet_i[66] inst2Packet_i[65] inst2Packet_i[64] inst2Packet_i[63] inst2Packet_i[62] 
+ inst2Packet_i[61] inst2Packet_i[60] inst2Packet_i[59] inst2Packet_i[58] inst2Packet_i[57] 
+ inst2Packet_i[56] inst2Packet_i[55] inst2Packet_i[54] inst2Packet_i[53] inst2Packet_i[52] 
+ inst2Packet_i[51] inst2Packet_i[50] inst2Packet_i[49] inst2Packet_i[48] inst2Packet_i[47] 
+ inst2Packet_i[46] inst2Packet_i[45] inst2Packet_i[44] inst2Packet_i[43] inst2Packet_i[42] 
+ inst2Packet_i[41] inst2Packet_i[40] inst2Packet_i[39] inst2Packet_i[38] inst2Packet_i[37] 
+ inst2Packet_i[36] inst2Packet_i[35] inst2Packet_i[34] inst2Packet_i[33] inst2Packet_i[32] 
+ inst2Packet_i[31] inst2Packet_i[30] inst2Packet_i[29] inst2Packet_i[28] inst2Packet_i[27] 
+ inst2Packet_i[26] inst2Packet_i[25] inst2Packet_i[24] inst2Packet_i[23] inst2Packet_i[22] 
+ inst2Packet_i[21] inst2Packet_i[20] inst2Packet_i[19] inst2Packet_i[18] inst2Packet_i[17] 
+ inst2Packet_i[16] inst2Packet_i[15] inst2Packet_i[14] inst2Packet_i[13] inst2Packet_i[12] 
+ inst2Packet_i[11] inst2Packet_i[10] inst2Packet_i[9] inst2Packet_i[8] inst2Packet_i[7] 
+ inst2Packet_i[6] inst2Packet_i[5] inst2Packet_i[4] inst2Packet_i[3] inst2Packet_i[2] 
+ inst2Packet_i[1] inst2Packet_i[0] instruction2Valid_o inst2Packet_o[132] inst2Packet_o[131] 
+ inst2Packet_o[130] inst2Packet_o[129] inst2Packet_o[128] inst2Packet_o[127] inst2Packet_o[126] 
+ inst2Packet_o[125] inst2Packet_o[124] inst2Packet_o[123] inst2Packet_o[122] inst2Packet_o[121] 
+ inst2Packet_o[120] inst2Packet_o[119] inst2Packet_o[118] inst2Packet_o[117] inst2Packet_o[116] 
+ inst2Packet_o[115] inst2Packet_o[114] inst2Packet_o[113] inst2Packet_o[112] inst2Packet_o[111] 
+ inst2Packet_o[110] inst2Packet_o[109] inst2Packet_o[108] inst2Packet_o[107] inst2Packet_o[106] 
+ inst2Packet_o[105] inst2Packet_o[104] inst2Packet_o[103] inst2Packet_o[102] inst2Packet_o[101] 
+ inst2Packet_o[100] inst2Packet_o[99] inst2Packet_o[98] inst2Packet_o[97] inst2Packet_o[96] 
+ inst2Packet_o[95] inst2Packet_o[94] inst2Packet_o[93] inst2Packet_o[92] inst2Packet_o[91] 
+ inst2Packet_o[90] inst2Packet_o[89] inst2Packet_o[88] inst2Packet_o[87] inst2Packet_o[86] 
+ inst2Packet_o[85] inst2Packet_o[84] inst2Packet_o[83] inst2Packet_o[82] inst2Packet_o[81] 
+ inst2Packet_o[80] inst2Packet_o[79] inst2Packet_o[78] inst2Packet_o[77] inst2Packet_o[76] 
+ inst2Packet_o[75] inst2Packet_o[74] inst2Packet_o[73] inst2Packet_o[72] inst2Packet_o[71] 
+ inst2Packet_o[70] inst2Packet_o[69] inst2Packet_o[68] inst2Packet_o[67] inst2Packet_o[66] 
+ inst2Packet_o[65] inst2Packet_o[64] inst2Packet_o[63] inst2Packet_o[62] inst2Packet_o[61] 
+ inst2Packet_o[60] inst2Packet_o[59] inst2Packet_o[58] inst2Packet_o[57] inst2Packet_o[56] 
+ inst2Packet_o[55] inst2Packet_o[54] inst2Packet_o[53] inst2Packet_o[52] inst2Packet_o[51] 
+ inst2Packet_o[50] inst2Packet_o[49] inst2Packet_o[48] inst2Packet_o[47] inst2Packet_o[46] 
+ inst2Packet_o[45] inst2Packet_o[44] inst2Packet_o[43] inst2Packet_o[42] inst2Packet_o[41] 
+ inst2Packet_o[40] inst2Packet_o[39] inst2Packet_o[38] inst2Packet_o[37] inst2Packet_o[36] 
+ inst2Packet_o[35] inst2Packet_o[34] inst2Packet_o[33] inst2Packet_o[32] inst2Packet_o[31] 
+ inst2Packet_o[30] inst2Packet_o[29] inst2Packet_o[28] inst2Packet_o[27] inst2Packet_o[26] 
+ inst2Packet_o[25] inst2Packet_o[24] inst2Packet_o[23] inst2Packet_o[22] inst2Packet_o[21] 
+ inst2Packet_o[20] inst2Packet_o[19] inst2Packet_o[18] inst2Packet_o[17] inst2Packet_o[16] 
+ inst2Packet_o[15] inst2Packet_o[14] inst2Packet_o[13] inst2Packet_o[12] inst2Packet_o[11] 
+ inst2Packet_o[10] inst2Packet_o[9] inst2Packet_o[8] inst2Packet_o[7] inst2Packet_o[6] 
+ inst2Packet_o[5] inst2Packet_o[4] inst2Packet_o[3] inst2Packet_o[2] inst2Packet_o[1] 
+ inst2Packet_o[0] instruction3Valid_i inst3Packet_i[132] inst3Packet_i[131] inst3Packet_i[130] 
+ inst3Packet_i[129] inst3Packet_i[128] inst3Packet_i[127] inst3Packet_i[126] inst3Packet_i[125] 
+ inst3Packet_i[124] inst3Packet_i[123] inst3Packet_i[122] inst3Packet_i[121] inst3Packet_i[120] 
+ inst3Packet_i[119] inst3Packet_i[118] inst3Packet_i[117] inst3Packet_i[116] inst3Packet_i[115] 
+ inst3Packet_i[114] inst3Packet_i[113] inst3Packet_i[112] inst3Packet_i[111] inst3Packet_i[110] 
+ inst3Packet_i[109] inst3Packet_i[108] inst3Packet_i[107] inst3Packet_i[106] inst3Packet_i[105] 
+ inst3Packet_i[104] inst3Packet_i[103] inst3Packet_i[102] inst3Packet_i[101] inst3Packet_i[100] 
+ inst3Packet_i[99] inst3Packet_i[98] inst3Packet_i[97] inst3Packet_i[96] inst3Packet_i[95] 
+ inst3Packet_i[94] inst3Packet_i[93] inst3Packet_i[92] inst3Packet_i[91] inst3Packet_i[90] 
+ inst3Packet_i[89] inst3Packet_i[88] inst3Packet_i[87] inst3Packet_i[86] inst3Packet_i[85] 
+ inst3Packet_i[84] inst3Packet_i[83] inst3Packet_i[82] inst3Packet_i[81] inst3Packet_i[80] 
+ inst3Packet_i[79] inst3Packet_i[78] inst3Packet_i[77] inst3Packet_i[76] inst3Packet_i[75] 
+ inst3Packet_i[74] inst3Packet_i[73] inst3Packet_i[72] inst3Packet_i[71] inst3Packet_i[70] 
+ inst3Packet_i[69] inst3Packet_i[68] inst3Packet_i[67] inst3Packet_i[66] inst3Packet_i[65] 
+ inst3Packet_i[64] inst3Packet_i[63] inst3Packet_i[62] inst3Packet_i[61] inst3Packet_i[60] 
+ inst3Packet_i[59] inst3Packet_i[58] inst3Packet_i[57] inst3Packet_i[56] inst3Packet_i[55] 
+ inst3Packet_i[54] inst3Packet_i[53] inst3Packet_i[52] inst3Packet_i[51] inst3Packet_i[50] 
+ inst3Packet_i[49] inst3Packet_i[48] inst3Packet_i[47] inst3Packet_i[46] inst3Packet_i[45] 
+ inst3Packet_i[44] inst3Packet_i[43] inst3Packet_i[42] inst3Packet_i[41] inst3Packet_i[40] 
+ inst3Packet_i[39] inst3Packet_i[38] inst3Packet_i[37] inst3Packet_i[36] inst3Packet_i[35] 
+ inst3Packet_i[34] inst3Packet_i[33] inst3Packet_i[32] inst3Packet_i[31] inst3Packet_i[30] 
+ inst3Packet_i[29] inst3Packet_i[28] inst3Packet_i[27] inst3Packet_i[26] inst3Packet_i[25] 
+ inst3Packet_i[24] inst3Packet_i[23] inst3Packet_i[22] inst3Packet_i[21] inst3Packet_i[20] 
+ inst3Packet_i[19] inst3Packet_i[18] inst3Packet_i[17] inst3Packet_i[16] inst3Packet_i[15] 
+ inst3Packet_i[14] inst3Packet_i[13] inst3Packet_i[12] inst3Packet_i[11] inst3Packet_i[10] 
+ inst3Packet_i[9] inst3Packet_i[8] inst3Packet_i[7] inst3Packet_i[6] inst3Packet_i[5] 
+ inst3Packet_i[4] inst3Packet_i[3] inst3Packet_i[2] inst3Packet_i[1] inst3Packet_i[0] 
+ instruction3Valid_o inst3Packet_o[132] inst3Packet_o[131] inst3Packet_o[130] inst3Packet_o[129] 
+ inst3Packet_o[128] inst3Packet_o[127] inst3Packet_o[126] inst3Packet_o[125] inst3Packet_o[124] 
+ inst3Packet_o[123] inst3Packet_o[122] inst3Packet_o[121] inst3Packet_o[120] inst3Packet_o[119] 
+ inst3Packet_o[118] inst3Packet_o[117] inst3Packet_o[116] inst3Packet_o[115] inst3Packet_o[114] 
+ inst3Packet_o[113] inst3Packet_o[112] inst3Packet_o[111] inst3Packet_o[110] inst3Packet_o[109] 
+ inst3Packet_o[108] inst3Packet_o[107] inst3Packet_o[106] inst3Packet_o[105] inst3Packet_o[104] 
+ inst3Packet_o[103] inst3Packet_o[102] inst3Packet_o[101] inst3Packet_o[100] inst3Packet_o[99] 
+ inst3Packet_o[98] inst3Packet_o[97] inst3Packet_o[96] inst3Packet_o[95] inst3Packet_o[94] 
+ inst3Packet_o[93] inst3Packet_o[92] inst3Packet_o[91] inst3Packet_o[90] inst3Packet_o[89] 
+ inst3Packet_o[88] inst3Packet_o[87] inst3Packet_o[86] inst3Packet_o[85] inst3Packet_o[84] 
+ inst3Packet_o[83] inst3Packet_o[82] inst3Packet_o[81] inst3Packet_o[80] inst3Packet_o[79] 
+ inst3Packet_o[78] inst3Packet_o[77] inst3Packet_o[76] inst3Packet_o[75] inst3Packet_o[74] 
+ inst3Packet_o[73] inst3Packet_o[72] inst3Packet_o[71] inst3Packet_o[70] inst3Packet_o[69] 
+ inst3Packet_o[68] inst3Packet_o[67] inst3Packet_o[66] inst3Packet_o[65] inst3Packet_o[64] 
+ inst3Packet_o[63] inst3Packet_o[62] inst3Packet_o[61] inst3Packet_o[60] inst3Packet_o[59] 
+ inst3Packet_o[58] inst3Packet_o[57] inst3Packet_o[56] inst3Packet_o[55] inst3Packet_o[54] 
+ inst3Packet_o[53] inst3Packet_o[52] inst3Packet_o[51] inst3Packet_o[50] inst3Packet_o[49] 
+ inst3Packet_o[48] inst3Packet_o[47] inst3Packet_o[46] inst3Packet_o[45] inst3Packet_o[44] 
+ inst3Packet_o[43] inst3Packet_o[42] inst3Packet_o[41] inst3Packet_o[40] inst3Packet_o[39] 
+ inst3Packet_o[38] inst3Packet_o[37] inst3Packet_o[36] inst3Packet_o[35] inst3Packet_o[34] 
+ inst3Packet_o[33] inst3Packet_o[32] inst3Packet_o[31] inst3Packet_o[30] inst3Packet_o[29] 
+ inst3Packet_o[28] inst3Packet_o[27] inst3Packet_o[26] inst3Packet_o[25] inst3Packet_o[24] 
+ inst3Packet_o[23] inst3Packet_o[22] inst3Packet_o[21] inst3Packet_o[20] inst3Packet_o[19] 
+ inst3Packet_o[18] inst3Packet_o[17] inst3Packet_o[16] inst3Packet_o[15] inst3Packet_o[14] 
+ inst3Packet_o[13] inst3Packet_o[12] inst3Packet_o[11] inst3Packet_o[10] inst3Packet_o[9] 
+ inst3Packet_o[8] inst3Packet_o[7] inst3Packet_o[6] inst3Packet_o[5] inst3Packet_o[4] 
+ inst3Packet_o[3] inst3Packet_o[2] inst3Packet_o[1] inst3Packet_o[0] reset flush_i 
+ stall_i updatePC_i[31] updatePC_i[30] updatePC_i[29] updatePC_i[28] updatePC_i[27] 
+ updatePC_i[26] updatePC_i[25] updatePC_i[24] updatePC_i[23] updatePC_i[22] updatePC_i[21] 
+ updatePC_i[20] updatePC_i[19] updatePC_i[18] updatePC_i[17] updatePC_i[16] updatePC_i[15] 
+ updatePC_i[14] updatePC_i[13] updatePC_i[12] updatePC_i[11] updatePC_i[10] updatePC_i[9] 
+ updatePC_i[8] updatePC_i[7] updatePC_i[6] updatePC_i[5] updatePC_i[4] updatePC_i[3] 
+ updatePC_i[2] updatePC_i[1] updatePC_i[0] updateTargetAddr_i[31] updateTargetAddr_i[30] 
+ updateTargetAddr_i[29] updateTargetAddr_i[28] updateTargetAddr_i[27] updateTargetAddr_i[26] 
+ updateTargetAddr_i[25] updateTargetAddr_i[24] updateTargetAddr_i[23] updateTargetAddr_i[22] 
+ updateTargetAddr_i[21] updateTargetAddr_i[20] updateTargetAddr_i[19] updateTargetAddr_i[18] 
+ updateTargetAddr_i[17] updateTargetAddr_i[16] updateTargetAddr_i[15] updateTargetAddr_i[14] 
+ updateTargetAddr_i[13] updateTargetAddr_i[12] updateTargetAddr_i[11] updateTargetAddr_i[10] 
+ updateTargetAddr_i[9] updateTargetAddr_i[8] updateTargetAddr_i[7] updateTargetAddr_i[6] 
+ updateTargetAddr_i[5] updateTargetAddr_i[4] updateTargetAddr_i[3] updateTargetAddr_i[2] 
+ updateTargetAddr_i[1] updateTargetAddr_i[0] updateCtrlType_i[1] updateCtrlType_i[0] 
+ updateDir_i updateEn_i fs2Ready_i updatePC_o[31] updatePC_o[30] updatePC_o[29] 
+ updatePC_o[28] updatePC_o[27] updatePC_o[26] updatePC_o[25] updatePC_o[24] updatePC_o[23] 
+ updatePC_o[22] updatePC_o[21] updatePC_o[20] updatePC_o[19] updatePC_o[18] updatePC_o[17] 
+ updatePC_o[16] updatePC_o[15] updatePC_o[14] updatePC_o[13] updatePC_o[12] updatePC_o[11] 
+ updatePC_o[10] updatePC_o[9] updatePC_o[8] updatePC_o[7] updatePC_o[6] updatePC_o[5] 
+ updatePC_o[4] updatePC_o[3] updatePC_o[2] updatePC_o[1] updatePC_o[0] updateTargetAddr_o[31] 
+ updateTargetAddr_o[30] updateTargetAddr_o[29] updateTargetAddr_o[28] updateTargetAddr_o[27] 
+ updateTargetAddr_o[26] updateTargetAddr_o[25] updateTargetAddr_o[24] updateTargetAddr_o[23] 
+ updateTargetAddr_o[22] updateTargetAddr_o[21] updateTargetAddr_o[20] updateTargetAddr_o[19] 
+ updateTargetAddr_o[18] updateTargetAddr_o[17] updateTargetAddr_o[16] updateTargetAddr_o[15] 
+ updateTargetAddr_o[14] updateTargetAddr_o[13] updateTargetAddr_o[12] updateTargetAddr_o[11] 
+ updateTargetAddr_o[10] updateTargetAddr_o[9] updateTargetAddr_o[8] updateTargetAddr_o[7] 
+ updateTargetAddr_o[6] updateTargetAddr_o[5] updateTargetAddr_o[4] updateTargetAddr_o[3] 
+ updateTargetAddr_o[2] updateTargetAddr_o[1] updateTargetAddr_o[0] updateCtrlType_o[1] 
+ updateCtrlType_o[0] updateDir_o updateEn_o fs2Ready_o 
XU2869 n3 n2799 INVX1_RVT 
XU2868 n3 n2798 INVX1_RVT 
XU2867 n3 n2797 INVX1_RVT 
XU2866 n3 n2796 INVX1_RVT 
XU2865 n3 n2795 INVX1_RVT 
XU2864 n3 n2794 INVX1_RVT 
XU2863 n2794 n2793 INVX1_RVT 
XU2862 n2796 n2792 INVX1_RVT 
XU2861 n2794 n2791 INVX1_RVT 
XU2860 n2796 n2790 INVX1_RVT 
XU2859 n2799 n2789 INVX1_RVT 
XU2858 n2795 n2788 INVX1_RVT 
XU2857 n2794 n2787 INVX1_RVT 
XU2856 n2794 n2786 INVX1_RVT 
XU2855 n2794 n2785 INVX1_RVT 
XU2854 n2794 n2784 INVX1_RVT 
XU2853 n2799 n2783 INVX1_RVT 
XU2852 n2795 n2782 INVX1_RVT 
XU2851 n2795 n2781 INVX1_RVT 
XU2850 n2795 n2780 INVX1_RVT 
XU2849 n2795 n2779 INVX1_RVT 
XU2848 n2798 n2778 INVX1_RVT 
XU2847 n2797 n2777 INVX1_RVT 
XU2846 n2798 n2776 INVX1_RVT 
XU2845 n2799 n2775 INVX1_RVT 
XU2844 n2796 n2774 INVX1_RVT 
XU2843 n2799 n2773 INVX1_RVT 
XU2842 n2795 n2772 INVX1_RVT 
XU2841 n2795 n2771 INVX1_RVT 
XU2840 n2795 n2770 INVX1_RVT 
XU2839 n2798 n2769 INVX1_RVT 
XU2838 n2797 n2768 INVX1_RVT 
XU2837 n2797 n2767 INVX1_RVT 
XU2836 n2794 n2766 INVX1_RVT 
XU2835 n2797 n2765 INVX1_RVT 
XU2834 n2798 n2764 INVX1_RVT 
XU2833 n2796 n2763 INVX1_RVT 
XU2832 n2799 n2762 INVX1_RVT 
XU2831 n2796 n2761 INVX1_RVT 
XU2830 n2796 n2760 INVX1_RVT 
XU2829 n2796 n2759 INVX1_RVT 
XU2828 n2796 n2758 INVX1_RVT 
XU2827 n2797 n2757 INVX1_RVT 
XU2826 n2797 n2756 INVX1_RVT 
XU2825 n2797 n2755 INVX1_RVT 
XU2824 n2798 n2754 INVX1_RVT 
XU2823 n2798 n2753 INVX1_RVT 
XU2822 n2798 n2752 INVX1_RVT 
XU2821 n2799 n2751 INVX1_RVT 
XU2820 n2799 n2750 INVX1_RVT 
XU2819 n2799 n2749 INVX1_RVT 
XU2818 n4 n2748 INVX1_RVT 
XU2817 n4 n2747 INVX1_RVT 
XU2816 n4 n2746 INVX1_RVT 
XU2815 n4 n2745 INVX1_RVT 
XU2814 n4 n2744 INVX1_RVT 
XU2813 n4 n2743 INVX1_RVT 
XU2812 n2743 n2742 INVX1_RVT 
XU2811 n2745 n2741 INVX1_RVT 
XU2810 n2743 n2740 INVX1_RVT 
XU2809 n2745 n2739 INVX1_RVT 
XU2808 n2748 n2738 INVX1_RVT 
XU2807 n2743 n2737 INVX1_RVT 
XU2806 n2743 n2736 INVX1_RVT 
XU2805 n2743 n2735 INVX1_RVT 
XU2804 n2743 n2734 INVX1_RVT 
XU2803 n2743 n2733 INVX1_RVT 
XU2802 n2748 n2732 INVX1_RVT 
XU2801 n2743 n2731 INVX1_RVT 
XU2800 n2744 n2730 INVX1_RVT 
XU2799 n2744 n2729 INVX1_RVT 
XU2798 n2744 n2728 INVX1_RVT 
XU2797 n2744 n2727 INVX1_RVT 
XU2796 n2746 n2726 INVX1_RVT 
XU2795 n2747 n2725 INVX1_RVT 
XU2794 n2748 n2724 INVX1_RVT 
XU2793 n2745 n2723 INVX1_RVT 
XU2792 n2748 n2722 INVX1_RVT 
XU2791 n2744 n2721 INVX1_RVT 
XU2790 n2744 n2720 INVX1_RVT 
XU2789 n2744 n2719 INVX1_RVT 
XU2788 n2746 n2718 INVX1_RVT 
XU2787 n2746 n2717 INVX1_RVT 
XU2786 n2747 n2716 INVX1_RVT 
XU2785 n2747 n2715 INVX1_RVT 
XU2784 n2746 n2714 INVX1_RVT 
XU2783 n2747 n2713 INVX1_RVT 
XU2782 n2745 n2712 INVX1_RVT 
XU2781 n2748 n2711 INVX1_RVT 
XU2780 n2745 n2710 INVX1_RVT 
XU2779 n2745 n2709 INVX1_RVT 
XU2778 n2745 n2708 INVX1_RVT 
XU2777 n2745 n2707 INVX1_RVT 
XU2776 n2746 n2706 INVX1_RVT 
XU2775 n2746 n2705 INVX1_RVT 
XU2774 n2746 n2704 INVX1_RVT 
XU2773 n2747 n2703 INVX1_RVT 
XU2772 n2747 n2702 INVX1_RVT 
XU2771 n2747 n2701 INVX1_RVT 
XU2770 n2748 n2700 INVX1_RVT 
XU2769 n2748 n2699 INVX1_RVT 
XU2768 n2748 n2698 INVX1_RVT 
XU2767 reset n2697 INVX1_RVT 
XU2766 reset n2696 INVX1_RVT 
XU2765 reset n2695 INVX1_RVT 
XU2764 reset n2694 INVX1_RVT 
XU2763 reset n2693 INVX1_RVT 
XU2762 n2691 n2692 INVX1_RVT 
XU2761 n1618 n2691 INVX1_RVT 
XU2760 n2689 n2690 INVX1_RVT 
XU2759 n1617 n2689 INVX1_RVT 
XU2758 n2687 n2688 INVX1_RVT 
XU2757 n1616 n2687 INVX1_RVT 
XU2756 n2685 n2686 INVX1_RVT 
XU2755 n1615 n2685 INVX1_RVT 
XU2754 n2683 n2684 INVX1_RVT 
XU2753 n1614 n2683 INVX1_RVT 
XU2752 n2681 n2682 INVX1_RVT 
XU2751 n1613 n2681 INVX1_RVT 
XU2750 n2679 n2680 INVX1_RVT 
XU2749 n1612 n2679 INVX1_RVT 
XU2748 n2677 n2678 INVX1_RVT 
XU2747 n1611 n2677 INVX1_RVT 
XU2746 n2675 n2676 INVX1_RVT 
XU2745 n1610 n2675 INVX1_RVT 
XU2744 n2673 n2674 INVX1_RVT 
XU2743 n1609 n2673 INVX1_RVT 
XU2742 n2671 n2672 INVX1_RVT 
XU2741 n1608 n2671 INVX1_RVT 
XU2740 n2669 n2670 INVX1_RVT 
XU2739 n1607 n2669 INVX1_RVT 
XU2738 n2667 n2668 INVX1_RVT 
XU2737 n1606 n2667 INVX1_RVT 
XU2736 n2665 n2666 INVX1_RVT 
XU2735 n1605 n2665 INVX1_RVT 
XU2734 n2663 n2664 INVX1_RVT 
XU2733 n1604 n2663 INVX1_RVT 
XU2732 n2661 n2662 INVX1_RVT 
XU2731 n1603 n2661 INVX1_RVT 
XU2730 n2659 n2660 INVX1_RVT 
XU2729 n1602 n2659 INVX1_RVT 
XU2728 n2657 n2658 INVX1_RVT 
XU2727 n1601 n2657 INVX1_RVT 
XU2726 n2655 n2656 INVX1_RVT 
XU2725 n1600 n2655 INVX1_RVT 
XU2724 n2653 n2654 INVX1_RVT 
XU2723 n1599 n2653 INVX1_RVT 
XU2722 n2651 n2652 INVX1_RVT 
XU2721 n1598 n2651 INVX1_RVT 
XU2720 n2649 n2650 INVX1_RVT 
XU2719 n1597 n2649 INVX1_RVT 
XU2718 n2647 n2648 INVX1_RVT 
XU2717 n1596 n2647 INVX1_RVT 
XU2716 n2645 n2646 INVX1_RVT 
XU2715 n1595 n2645 INVX1_RVT 
XU2714 n2643 n2644 INVX1_RVT 
XU2713 n1594 n2643 INVX1_RVT 
XU2712 n2641 n2642 INVX1_RVT 
XU2711 n1593 n2641 INVX1_RVT 
XU2710 n2639 n2640 INVX1_RVT 
XU2709 n1592 n2639 INVX1_RVT 
XU2708 n2637 n2638 INVX1_RVT 
XU2707 n1591 n2637 INVX1_RVT 
XU2706 n2635 n2636 INVX1_RVT 
XU2705 n1590 n2635 INVX1_RVT 
XU2704 n2633 n2634 INVX1_RVT 
XU2703 n1589 n2633 INVX1_RVT 
XU2702 n2631 n2632 INVX1_RVT 
XU2701 n1588 n2631 INVX1_RVT 
XU2700 n2629 n2630 INVX1_RVT 
XU2699 n1587 n2629 INVX1_RVT 
XU2698 n2627 n2628 INVX1_RVT 
XU2697 n1586 n2627 INVX1_RVT 
XU2696 n2625 n2626 INVX1_RVT 
XU2695 n1585 n2625 INVX1_RVT 
XU2694 n2623 n2624 INVX1_RVT 
XU2693 n1584 n2623 INVX1_RVT 
XU2692 n2621 n2622 INVX1_RVT 
XU2691 n1583 n2621 INVX1_RVT 
XU2690 n2619 n2620 INVX1_RVT 
XU2689 n1582 n2619 INVX1_RVT 
XU2688 n2617 n2618 INVX1_RVT 
XU2687 n1581 n2617 INVX1_RVT 
XU2686 n2615 n2616 INVX1_RVT 
XU2685 n1580 n2615 INVX1_RVT 
XU2684 n2613 n2614 INVX1_RVT 
XU2683 n1579 n2613 INVX1_RVT 
XU2682 n2611 n2612 INVX1_RVT 
XU2681 n1578 n2611 INVX1_RVT 
XU2680 n2609 n2610 INVX1_RVT 
XU2679 n1577 n2609 INVX1_RVT 
XU2678 n2607 n2608 INVX1_RVT 
XU2677 n1576 n2607 INVX1_RVT 
XU2676 n2605 n2606 INVX1_RVT 
XU2675 n1575 n2605 INVX1_RVT 
XU2674 n2603 n2604 INVX1_RVT 
XU2673 n1574 n2603 INVX1_RVT 
XU2672 n2601 n2602 INVX1_RVT 
XU2671 n1573 n2601 INVX1_RVT 
XU2670 n2599 n2600 INVX1_RVT 
XU2669 n1572 n2599 INVX1_RVT 
XU2668 n2597 n2598 INVX1_RVT 
XU2667 n1571 n2597 INVX1_RVT 
XU2666 n2595 n2596 INVX1_RVT 
XU2665 n1570 n2595 INVX1_RVT 
XU2664 n2593 n2594 INVX1_RVT 
XU2663 n1569 n2593 INVX1_RVT 
XU2662 n2591 n2592 INVX1_RVT 
XU2661 n1568 n2591 INVX1_RVT 
XU2660 n2589 n2590 INVX1_RVT 
XU2659 n1567 n2589 INVX1_RVT 
XU2658 n2587 n2588 INVX1_RVT 
XU2657 n1566 n2587 INVX1_RVT 
XU2656 n2585 n2586 INVX1_RVT 
XU2655 n1565 n2585 INVX1_RVT 
XU2654 n2583 n2584 INVX1_RVT 
XU2653 n1564 n2583 INVX1_RVT 
XU2652 n2581 n2582 INVX1_RVT 
XU2651 n1563 n2581 INVX1_RVT 
XU2650 n2579 n2580 INVX1_RVT 
XU2649 n1562 n2579 INVX1_RVT 
XU2648 n2577 n2578 INVX1_RVT 
XU2647 n1561 n2577 INVX1_RVT 
XU2646 n2575 n2576 INVX1_RVT 
XU2645 n1560 n2575 INVX1_RVT 
XU2644 n2573 n2574 INVX1_RVT 
XU2643 n1559 n2573 INVX1_RVT 
XU2642 n2571 n2572 INVX1_RVT 
XU2641 n1558 n2571 INVX1_RVT 
XU2640 n2569 n2570 INVX1_RVT 
XU2639 n1557 n2569 INVX1_RVT 
XU2638 n2567 n2568 INVX1_RVT 
XU2637 n1556 n2567 INVX1_RVT 