* Nettran: AMD.64 Release B-2008.09.SP5.HF2.26004 2012/07/19
* Created:  6/25/2016  19:39
* Options: -verilog netlist.v -outName netlist.sp -verilog-b1 VDD -verilog-b0 GND -outType spice 

.GLOBAL VDD GND 

.SUBCKT FetchStage1 flush_i stall_i clk reset recoverFlag_i recoverPC_i[31] recoverPC_i[30] 
+ recoverPC_i[29] recoverPC_i[28] recoverPC_i[27] recoverPC_i[26] recoverPC_i[25] 
+ recoverPC_i[24] recoverPC_i[23] recoverPC_i[22] recoverPC_i[21] recoverPC_i[20] 
+ recoverPC_i[19] recoverPC_i[18] recoverPC_i[17] recoverPC_i[16] recoverPC_i[15] 
+ recoverPC_i[14] recoverPC_i[13] recoverPC_i[12] recoverPC_i[11] recoverPC_i[10] 
+ recoverPC_i[9] recoverPC_i[8] recoverPC_i[7] recoverPC_i[6] recoverPC_i[5] recoverPC_i[4] 
+ recoverPC_i[3] recoverPC_i[2] recoverPC_i[1] recoverPC_i[0] exceptionFlag_i exceptionPC_i[31] 
+ exceptionPC_i[30] exceptionPC_i[29] exceptionPC_i[28] exceptionPC_i[27] exceptionPC_i[26] 
+ exceptionPC_i[25] exceptionPC_i[24] exceptionPC_i[23] exceptionPC_i[22] exceptionPC_i[21] 
+ exceptionPC_i[20] exceptionPC_i[19] exceptionPC_i[18] exceptionPC_i[17] exceptionPC_i[16] 
+ exceptionPC_i[15] exceptionPC_i[14] exceptionPC_i[13] exceptionPC_i[12] exceptionPC_i[11] 
+ exceptionPC_i[10] exceptionPC_i[9] exceptionPC_i[8] exceptionPC_i[7] exceptionPC_i[6] 
+ exceptionPC_i[5] exceptionPC_i[4] exceptionPC_i[3] exceptionPC_i[2] exceptionPC_i[1] 
+ exceptionPC_i[0] flagRecoverID_i flagCallID_i callPCID_i[31] callPCID_i[30] callPCID_i[29] 
+ callPCID_i[28] callPCID_i[27] callPCID_i[26] callPCID_i[25] callPCID_i[24] callPCID_i[23] 
+ callPCID_i[22] callPCID_i[21] callPCID_i[20] callPCID_i[19] callPCID_i[18] callPCID_i[17] 
+ callPCID_i[16] callPCID_i[15] callPCID_i[14] callPCID_i[13] callPCID_i[12] callPCID_i[11] 
+ callPCID_i[10] callPCID_i[9] callPCID_i[8] callPCID_i[7] callPCID_i[6] callPCID_i[5] 
+ callPCID_i[4] callPCID_i[3] callPCID_i[2] callPCID_i[1] callPCID_i[0] flagRtrID_i 
+ targetAddrID_i[31] targetAddrID_i[30] targetAddrID_i[29] targetAddrID_i[28] targetAddrID_i[27] 
+ targetAddrID_i[26] targetAddrID_i[25] targetAddrID_i[24] targetAddrID_i[23] targetAddrID_i[22] 
+ targetAddrID_i[21] targetAddrID_i[20] targetAddrID_i[19] targetAddrID_i[18] targetAddrID_i[17] 
+ targetAddrID_i[16] targetAddrID_i[15] targetAddrID_i[14] targetAddrID_i[13] targetAddrID_i[12] 
+ targetAddrID_i[11] targetAddrID_i[10] targetAddrID_i[9] targetAddrID_i[8] targetAddrID_i[7] 
+ targetAddrID_i[6] targetAddrID_i[5] targetAddrID_i[4] targetAddrID_i[3] targetAddrID_i[2] 
+ targetAddrID_i[1] targetAddrID_i[0] flagRecoverEX_i targetAddrEX_i[31] targetAddrEX_i[30] 
+ targetAddrEX_i[29] targetAddrEX_i[28] targetAddrEX_i[27] targetAddrEX_i[26] targetAddrEX_i[25] 
+ targetAddrEX_i[24] targetAddrEX_i[23] targetAddrEX_i[22] targetAddrEX_i[21] targetAddrEX_i[20] 
+ targetAddrEX_i[19] targetAddrEX_i[18] targetAddrEX_i[17] targetAddrEX_i[16] targetAddrEX_i[15] 
+ targetAddrEX_i[14] targetAddrEX_i[13] targetAddrEX_i[12] targetAddrEX_i[11] targetAddrEX_i[10] 
+ targetAddrEX_i[9] targetAddrEX_i[8] targetAddrEX_i[7] targetAddrEX_i[6] targetAddrEX_i[5] 
+ targetAddrEX_i[4] targetAddrEX_i[3] targetAddrEX_i[2] targetAddrEX_i[1] targetAddrEX_i[0] 
+ updatePC_i[31] updatePC_i[30] updatePC_i[29] updatePC_i[28] updatePC_i[27] updatePC_i[26] 
+ updatePC_i[25] updatePC_i[24] updatePC_i[23] updatePC_i[22] updatePC_i[21] updatePC_i[20] 
+ updatePC_i[19] updatePC_i[18] updatePC_i[17] updatePC_i[16] updatePC_i[15] updatePC_i[14] 
+ updatePC_i[13] updatePC_i[12] updatePC_i[11] updatePC_i[10] updatePC_i[9] updatePC_i[8] 
+ updatePC_i[7] updatePC_i[6] updatePC_i[5] updatePC_i[4] updatePC_i[3] updatePC_i[2] 
+ updatePC_i[1] updatePC_i[0] updateTargetAddr_i[31] updateTargetAddr_i[30] updateTargetAddr_i[29] 
+ updateTargetAddr_i[28] updateTargetAddr_i[27] updateTargetAddr_i[26] updateTargetAddr_i[25] 
+ updateTargetAddr_i[24] updateTargetAddr_i[23] updateTargetAddr_i[22] updateTargetAddr_i[21] 
+ updateTargetAddr_i[20] updateTargetAddr_i[19] updateTargetAddr_i[18] updateTargetAddr_i[17] 
+ updateTargetAddr_i[16] updateTargetAddr_i[15] updateTargetAddr_i[14] updateTargetAddr_i[13] 
+ updateTargetAddr_i[12] updateTargetAddr_i[11] updateTargetAddr_i[10] updateTargetAddr_i[9] 
+ updateTargetAddr_i[8] updateTargetAddr_i[7] updateTargetAddr_i[6] updateTargetAddr_i[5] 
+ updateTargetAddr_i[4] updateTargetAddr_i[3] updateTargetAddr_i[2] updateTargetAddr_i[1] 
+ updateTargetAddr_i[0] updateBrType_i[1] updateBrType_i[0] updateDir_i updateEn_i 
+ fs1Ready_o instructionBundle_o[255] instructionBundle_o[254] instructionBundle_o[253] 
+ instructionBundle_o[252] instructionBundle_o[251] instructionBundle_o[250] instructionBundle_o[249] 
+ instructionBundle_o[248] instructionBundle_o[247] instructionBundle_o[246] instructionBundle_o[245] 
+ instructionBundle_o[244] instructionBundle_o[243] instructionBundle_o[242] instructionBundle_o[241] 
+ instructionBundle_o[240] instructionBundle_o[239] instructionBundle_o[238] instructionBundle_o[237] 
+ instructionBundle_o[236] instructionBundle_o[235] instructionBundle_o[234] instructionBundle_o[233] 
+ instructionBundle_o[232] instructionBundle_o[231] instructionBundle_o[230] instructionBundle_o[229] 
+ instructionBundle_o[228] instructionBundle_o[227] instructionBundle_o[226] instructionBundle_o[225] 
+ instructionBundle_o[224] instructionBundle_o[223] instructionBundle_o[222] instructionBundle_o[221] 
+ instructionBundle_o[220] instructionBundle_o[219] instructionBundle_o[218] instructionBundle_o[217] 
+ instructionBundle_o[216] instructionBundle_o[215] instructionBundle_o[214] instructionBundle_o[213] 
+ instructionBundle_o[212] instructionBundle_o[211] instructionBundle_o[210] instructionBundle_o[209] 
+ instructionBundle_o[208] instructionBundle_o[207] instructionBundle_o[206] instructionBundle_o[205] 
+ instructionBundle_o[204] instructionBundle_o[203] instructionBundle_o[202] instructionBundle_o[201] 
+ instructionBundle_o[200] instructionBundle_o[199] instructionBundle_o[198] instructionBundle_o[197] 
+ instructionBundle_o[196] instructionBundle_o[195] instructionBundle_o[194] instructionBundle_o[193] 
+ instructionBundle_o[192] instructionBundle_o[191] instructionBundle_o[190] instructionBundle_o[189] 
+ instructionBundle_o[188] instructionBundle_o[187] instructionBundle_o[186] instructionBundle_o[185] 
+ instructionBundle_o[184] instructionBundle_o[183] instructionBundle_o[182] instructionBundle_o[181] 
+ instructionBundle_o[180] instructionBundle_o[179] instructionBundle_o[178] instructionBundle_o[177] 
+ instructionBundle_o[176] instructionBundle_o[175] instructionBundle_o[174] instructionBundle_o[173] 
+ instructionBundle_o[172] instructionBundle_o[171] instructionBundle_o[170] instructionBundle_o[169] 
+ instructionBundle_o[168] instructionBundle_o[167] instructionBundle_o[166] instructionBundle_o[165] 
+ instructionBundle_o[164] instructionBundle_o[163] instructionBundle_o[162] instructionBundle_o[161] 
+ instructionBundle_o[160] instructionBundle_o[159] instructionBundle_o[158] instructionBundle_o[157] 
+ instructionBundle_o[156] instructionBundle_o[155] instructionBundle_o[154] instructionBundle_o[153] 
+ instructionBundle_o[152] instructionBundle_o[151] instructionBundle_o[150] instructionBundle_o[149] 
+ instructionBundle_o[148] instructionBundle_o[147] instructionBundle_o[146] instructionBundle_o[145] 
+ instructionBundle_o[144] instructionBundle_o[143] instructionBundle_o[142] instructionBundle_o[141] 
+ instructionBundle_o[140] instructionBundle_o[139] instructionBundle_o[138] instructionBundle_o[137] 
+ instructionBundle_o[136] instructionBundle_o[135] instructionBundle_o[134] instructionBundle_o[133] 
+ instructionBundle_o[132] instructionBundle_o[131] instructionBundle_o[130] instructionBundle_o[129] 
+ instructionBundle_o[128] instructionBundle_o[127] instructionBundle_o[126] instructionBundle_o[125] 
+ instructionBundle_o[124] instructionBundle_o[123] instructionBundle_o[122] instructionBundle_o[121] 
+ instructionBundle_o[120] instructionBundle_o[119] instructionBundle_o[118] instructionBundle_o[117] 
+ instructionBundle_o[116] instructionBundle_o[115] instructionBundle_o[114] instructionBundle_o[113] 
+ instructionBundle_o[112] instructionBundle_o[111] instructionBundle_o[110] instructionBundle_o[109] 
+ instructionBundle_o[108] instructionBundle_o[107] instructionBundle_o[106] instructionBundle_o[105] 
+ instructionBundle_o[104] instructionBundle_o[103] instructionBundle_o[102] instructionBundle_o[101] 
+ instructionBundle_o[100] instructionBundle_o[99] instructionBundle_o[98] instructionBundle_o[97] 
+ instructionBundle_o[96] instructionBundle_o[95] instructionBundle_o[94] instructionBundle_o[93] 
+ instructionBundle_o[92] instructionBundle_o[91] instructionBundle_o[90] instructionBundle_o[89] 
+ instructionBundle_o[88] instructionBundle_o[87] instructionBundle_o[86] instructionBundle_o[85] 
+ instructionBundle_o[84] instructionBundle_o[83] instructionBundle_o[82] instructionBundle_o[81] 
+ instructionBundle_o[80] instructionBundle_o[79] instructionBundle_o[78] instructionBundle_o[77] 
+ instructionBundle_o[76] instructionBundle_o[75] instructionBundle_o[74] instructionBundle_o[73] 
+ instructionBundle_o[72] instructionBundle_o[71] instructionBundle_o[70] instructionBundle_o[69] 
+ instructionBundle_o[68] instructionBundle_o[67] instructionBundle_o[66] instructionBundle_o[65] 
+ instructionBundle_o[64] instructionBundle_o[63] instructionBundle_o[62] instructionBundle_o[61] 
+ instructionBundle_o[60] instructionBundle_o[59] instructionBundle_o[58] instructionBundle_o[57] 
+ instructionBundle_o[56] instructionBundle_o[55] instructionBundle_o[54] instructionBundle_o[53] 
+ instructionBundle_o[52] instructionBundle_o[51] instructionBundle_o[50] instructionBundle_o[49] 
+ instructionBundle_o[48] instructionBundle_o[47] instructionBundle_o[46] instructionBundle_o[45] 
+ instructionBundle_o[44] instructionBundle_o[43] instructionBundle_o[42] instructionBundle_o[41] 
+ instructionBundle_o[40] instructionBundle_o[39] instructionBundle_o[38] instructionBundle_o[37] 
+ instructionBundle_o[36] instructionBundle_o[35] instructionBundle_o[34] instructionBundle_o[33] 
+ instructionBundle_o[32] instructionBundle_o[31] instructionBundle_o[30] instructionBundle_o[29] 
+ instructionBundle_o[28] instructionBundle_o[27] instructionBundle_o[26] instructionBundle_o[25] 
+ instructionBundle_o[24] instructionBundle_o[23] instructionBundle_o[22] instructionBundle_o[21] 
+ instructionBundle_o[20] instructionBundle_o[19] instructionBundle_o[18] instructionBundle_o[17] 
+ instructionBundle_o[16] instructionBundle_o[15] instructionBundle_o[14] instructionBundle_o[13] 
+ instructionBundle_o[12] instructionBundle_o[11] instructionBundle_o[10] instructionBundle_o[9] 
+ instructionBundle_o[8] instructionBundle_o[7] instructionBundle_o[6] instructionBundle_o[5] 
+ instructionBundle_o[4] instructionBundle_o[3] instructionBundle_o[2] instructionBundle_o[1] 
+ instructionBundle_o[0] pc_o[31] pc_o[30] pc_o[29] pc_o[28] pc_o[27] pc_o[26] pc_o[25] 
+ pc_o[24] pc_o[23] pc_o[22] pc_o[21] pc_o[20] pc_o[19] pc_o[18] pc_o[17] pc_o[16] 
+ pc_o[15] pc_o[14] pc_o[13] pc_o[12] pc_o[11] pc_o[10] pc_o[9] pc_o[8] pc_o[7] 
+ pc_o[6] pc_o[5] N44 N43 N42 N41 N40 addrRAS_CP_o[31] addrRAS_CP_o[30] addrRAS_CP_o[29] 
+ addrRAS_CP_o[28] addrRAS_CP_o[27] addrRAS_CP_o[26] addrRAS_CP_o[25] addrRAS_CP_o[24] 
+ addrRAS_CP_o[23] addrRAS_CP_o[22] addrRAS_CP_o[21] addrRAS_CP_o[20] addrRAS_CP_o[19] 
+ addrRAS_CP_o[18] addrRAS_CP_o[17] addrRAS_CP_o[16] addrRAS_CP_o[15] addrRAS_CP_o[14] 
+ addrRAS_CP_o[13] addrRAS_CP_o[12] addrRAS_CP_o[11] addrRAS_CP_o[10] addrRAS_CP_o[9] 
+ addrRAS_CP_o[8] addrRAS_CP_o[7] addrRAS_CP_o[6] addrRAS_CP_o[5] addrRAS_CP_o[4] 
+ addrRAS_CP_o[3] addrRAS_CP_o[2] addrRAS_CP_o[1] addrRAS_CP_o[0] btbHit0_o targetAddr0_o[31] 
+ targetAddr0_o[30] targetAddr0_o[29] targetAddr0_o[28] targetAddr0_o[27] targetAddr0_o[26] 
+ targetAddr0_o[25] targetAddr0_o[24] targetAddr0_o[23] targetAddr0_o[22] targetAddr0_o[21] 
+ targetAddr0_o[20] targetAddr0_o[19] targetAddr0_o[18] targetAddr0_o[17] targetAddr0_o[16] 
+ targetAddr0_o[15] targetAddr0_o[14] targetAddr0_o[13] targetAddr0_o[12] targetAddr0_o[11] 
+ targetAddr0_o[10] targetAddr0_o[9] targetAddr0_o[8] targetAddr0_o[7] targetAddr0_o[6] 
+ targetAddr0_o[5] targetAddr0_o[4] targetAddr0_o[3] targetAddr0_o[2] targetAddr0_o[1] 
+ targetAddr0_o[0] prediction0_o btbHit1_o targetAddr1_o[31] targetAddr1_o[30] targetAddr1_o[29] 
+ targetAddr1_o[28] targetAddr1_o[27] targetAddr1_o[26] targetAddr1_o[25] targetAddr1_o[24] 
+ targetAddr1_o[23] targetAddr1_o[22] targetAddr1_o[21] targetAddr1_o[20] targetAddr1_o[19] 
+ targetAddr1_o[18] targetAddr1_o[17] targetAddr1_o[16] targetAddr1_o[15] targetAddr1_o[14] 
+ targetAddr1_o[13] targetAddr1_o[12] targetAddr1_o[11] targetAddr1_o[10] targetAddr1_o[9] 
+ targetAddr1_o[8] targetAddr1_o[7] targetAddr1_o[6] targetAddr1_o[5] targetAddr1_o[4] 
+ targetAddr1_o[3] targetAddr1_o[2] targetAddr1_o[1] targetAddr1_o[0] prediction1_o 
+ btbHit2_o addrRAS[31] addrRAS[30] addrRAS[29] addrRAS[28] addrRAS[27] addrRAS[26] 
+ addrRAS[25] addrRAS[24] addrRAS[23] addrRAS[22] addrRAS[21] addrRAS[20] addrRAS[19] 
+ addrRAS[18] addrRAS[17] addrRAS[16] addrRAS[15] addrRAS[14] addrRAS[13] addrRAS[12] 
+ addrRAS[11] addrRAS[10] addrRAS[9] addrRAS[8] addrRAS[7] addrRAS[6] addrRAS[5] 
+ addrRAS[4] addrRAS[3] addrRAS[2] addrRAS[1] addrRAS[0] prediction2_o btbHit3_o 
+ targetAddr3_o[31] targetAddr3_o[30] targetAddr3_o[29] targetAddr3_o[28] targetAddr3_o[27] 
+ targetAddr3_o[26] targetAddr3_o[25] targetAddr3_o[24] targetAddr3_o[23] targetAddr3_o[22] 
+ targetAddr3_o[21] targetAddr3_o[20] targetAddr3_o[19] targetAddr3_o[18] targetAddr3_o[17] 
+ targetAddr3_o[16] targetAddr3_o[15] targetAddr3_o[14] targetAddr3_o[13] targetAddr3_o[12] 
+ targetAddr3_o[11] targetAddr3_o[10] targetAddr3_o[9] targetAddr3_o[8] targetAddr3_o[7] 
+ targetAddr3_o[6] targetAddr3_o[5] targetAddr3_o[4] targetAddr3_o[3] targetAddr3_o[2] 
+ targetAddr3_o[1] targetAddr3_o[0] prediction3_o wrEnable_i wrAddr_i[31] wrAddr_i[30] 
+ wrAddr_i[29] wrAddr_i[28] wrAddr_i[27] wrAddr_i[26] wrAddr_i[25] wrAddr_i[24] 
+ wrAddr_i[23] wrAddr_i[22] wrAddr_i[21] wrAddr_i[20] wrAddr_i[19] wrAddr_i[18] 
+ wrAddr_i[17] wrAddr_i[16] wrAddr_i[15] wrAddr_i[14] wrAddr_i[13] wrAddr_i[12] 
+ wrAddr_i[11] wrAddr_i[10] wrAddr_i[9] wrAddr_i[8] wrAddr_i[7] wrAddr_i[6] wrAddr_i[5] 
+ wrAddr_i[4] wrAddr_i[3] wrAddr_i[2] wrAddr_i[1] wrAddr_i[0] instBlock_i[255] instBlock_i[254] 
+ instBlock_i[253] instBlock_i[252] instBlock_i[251] instBlock_i[250] instBlock_i[249] 
+ instBlock_i[248] instBlock_i[247] instBlock_i[246] instBlock_i[245] instBlock_i[244] 
+ instBlock_i[243] instBlock_i[242] instBlock_i[241] instBlock_i[240] instBlock_i[239] 
+ instBlock_i[238] instBlock_i[237] instBlock_i[236] instBlock_i[235] instBlock_i[234] 
+ instBlock_i[233] instBlock_i[232] instBlock_i[231] instBlock_i[230] instBlock_i[229] 
+ instBlock_i[228] instBlock_i[227] instBlock_i[226] instBlock_i[225] instBlock_i[224] 
+ instBlock_i[223] instBlock_i[222] instBlock_i[221] instBlock_i[220] instBlock_i[219] 
+ instBlock_i[218] instBlock_i[217] instBlock_i[216] instBlock_i[215] instBlock_i[214] 
+ instBlock_i[213] instBlock_i[212] instBlock_i[211] instBlock_i[210] instBlock_i[209] 
+ instBlock_i[208] instBlock_i[207] instBlock_i[206] instBlock_i[205] instBlock_i[204] 
+ instBlock_i[203] instBlock_i[202] instBlock_i[201] instBlock_i[200] instBlock_i[199] 
+ instBlock_i[198] instBlock_i[197] instBlock_i[196] instBlock_i[195] instBlock_i[194] 
+ instBlock_i[193] instBlock_i[192] instBlock_i[191] instBlock_i[190] instBlock_i[189] 
+ instBlock_i[188] instBlock_i[187] instBlock_i[186] instBlock_i[185] instBlock_i[184] 
+ instBlock_i[183] instBlock_i[182] instBlock_i[181] instBlock_i[180] instBlock_i[179] 
+ instBlock_i[178] instBlock_i[177] instBlock_i[176] instBlock_i[175] instBlock_i[174] 
+ instBlock_i[173] instBlock_i[172] instBlock_i[171] instBlock_i[170] instBlock_i[169] 
+ instBlock_i[168] instBlock_i[167] instBlock_i[166] instBlock_i[165] instBlock_i[164] 
+ instBlock_i[163] instBlock_i[162] instBlock_i[161] instBlock_i[160] instBlock_i[159] 
+ instBlock_i[158] instBlock_i[157] instBlock_i[156] instBlock_i[155] instBlock_i[154] 
+ instBlock_i[153] instBlock_i[152] instBlock_i[151] instBlock_i[150] instBlock_i[149] 
+ instBlock_i[148] instBlock_i[147] instBlock_i[146] instBlock_i[145] instBlock_i[144] 
+ instBlock_i[143] instBlock_i[142] instBlock_i[141] instBlock_i[140] instBlock_i[139] 
+ instBlock_i[138] instBlock_i[137] instBlock_i[136] instBlock_i[135] instBlock_i[134] 
+ instBlock_i[133] instBlock_i[132] instBlock_i[131] instBlock_i[130] instBlock_i[129] 
+ instBlock_i[128] instBlock_i[127] instBlock_i[126] instBlock_i[125] instBlock_i[124] 
+ instBlock_i[123] instBlock_i[122] instBlock_i[121] instBlock_i[120] instBlock_i[119] 
+ instBlock_i[118] instBlock_i[117] instBlock_i[116] instBlock_i[115] instBlock_i[114] 
+ instBlock_i[113] instBlock_i[112] instBlock_i[111] instBlock_i[110] instBlock_i[109] 
+ instBlock_i[108] instBlock_i[107] instBlock_i[106] instBlock_i[105] instBlock_i[104] 
+ instBlock_i[103] instBlock_i[102] instBlock_i[101] instBlock_i[100] instBlock_i[99] 
+ instBlock_i[98] instBlock_i[97] instBlock_i[96] instBlock_i[95] instBlock_i[94] 
+ instBlock_i[93] instBlock_i[92] instBlock_i[91] instBlock_i[90] instBlock_i[89] 
+ instBlock_i[88] instBlock_i[87] instBlock_i[86] instBlock_i[85] instBlock_i[84] 
+ instBlock_i[83] instBlock_i[82] instBlock_i[81] instBlock_i[80] instBlock_i[79] 
+ instBlock_i[78] instBlock_i[77] instBlock_i[76] instBlock_i[75] instBlock_i[74] 
+ instBlock_i[73] instBlock_i[72] instBlock_i[71] instBlock_i[70] instBlock_i[69] 
+ instBlock_i[68] instBlock_i[67] instBlock_i[66] instBlock_i[65] instBlock_i[64] 
+ instBlock_i[63] instBlock_i[62] instBlock_i[61] instBlock_i[60] instBlock_i[59] 
+ instBlock_i[58] instBlock_i[57] instBlock_i[56] instBlock_i[55] instBlock_i[54] 
+ instBlock_i[53] instBlock_i[52] instBlock_i[51] instBlock_i[50] instBlock_i[49] 
+ instBlock_i[48] instBlock_i[47] instBlock_i[46] instBlock_i[45] instBlock_i[44] 
+ instBlock_i[43] instBlock_i[42] instBlock_i[41] instBlock_i[40] instBlock_i[39] 
+ instBlock_i[38] instBlock_i[37] instBlock_i[36] instBlock_i[35] instBlock_i[34] 
+ instBlock_i[33] instBlock_i[32] instBlock_i[31] instBlock_i[30] instBlock_i[29] 
+ instBlock_i[28] instBlock_i[27] instBlock_i[26] instBlock_i[25] instBlock_i[24] 
+ instBlock_i[23] instBlock_i[22] instBlock_i[21] instBlock_i[20] instBlock_i[19] 
+ instBlock_i[18] instBlock_i[17] instBlock_i[16] instBlock_i[15] instBlock_i[14] 
+ instBlock_i[13] instBlock_i[12] instBlock_i[11] instBlock_i[10] instBlock_i[9] 
+ instBlock_i[8] instBlock_i[7] instBlock_i[6] instBlock_i[5] instBlock_i[4] instBlock_i[3] 
+ instBlock_i[2] instBlock_i[1] instBlock_i[0] miss_o missAddr_o[31] missAddr_o[30] 
+ missAddr_o[29] missAddr_o[28] missAddr_o[27] missAddr_o[26] missAddr_o[25] missAddr_o[24] 
+ missAddr_o[23] missAddr_o[22] missAddr_o[21] missAddr_o[20] missAddr_o[19] missAddr_o[18] 
+ missAddr_o[17] missAddr_o[16] missAddr_o[15] missAddr_o[14] missAddr_o[13] missAddr_o[12] 
+ missAddr_o[11] missAddr_o[10] missAddr_o[9] missAddr_o[8] missAddr_o[7] missAddr_o[6] 
+ missAddr_o[5] missAddr_o[4] missAddr_o[3] missAddr_o[2] missAddr_o[1] missAddr_o[0] 
XU4809 n580 n578 n574 AND2X1_RVT 
XU4808 n612 n611 n607 AND2X1_RVT 
XU4807 n635 n634 n630 AND2X1_RVT 
XU4806 n658 n657 n653 AND2X1_RVT 
XU4805 n681 n680 n676 AND2X1_RVT 
XU4804 n704 n703 n699 AND2X1_RVT 
XU4803 n727 n726 n722 AND2X1_RVT 
XU4802 n750 n749 n745 AND2X1_RVT 
XU4801 n773 n772 n768 AND2X1_RVT 
XU4800 n796 n795 n791 AND2X1_RVT 
XU4799 n819 n818 n814 AND2X1_RVT 
XU4798 n842 n841 n837 AND2X1_RVT 
XU4797 n865 n864 n860 AND2X1_RVT 
XU4796 n888 n887 n883 AND2X1_RVT 
XU4795 n911 n910 n906 AND2X1_RVT 
XU4794 n934 n933 n929 AND2X1_RVT 
XU4793 n957 n956 n952 AND2X1_RVT 
XU4792 n980 n979 n975 AND2X1_RVT 
XU4791 n1003 n1002 n998 AND2X1_RVT 
XU4790 n1026 n1025 n1021 AND2X1_RVT 
XU4789 n1049 n1048 n1044 AND2X1_RVT 
XU4788 n1072 n1071 n1067 AND2X1_RVT 
XU4787 n1095 n1094 n1090 AND2X1_RVT 
XU4786 n1118 n1117 n1113 AND2X1_RVT 
XU4785 n1141 n1140 n1136 AND2X1_RVT 
XU4784 n1164 n1163 n1159 AND2X1_RVT 
XU4783 n1187 n1186 n1182 AND2X1_RVT 
XU4782 n1210 n1209 n1205 AND2X1_RVT 
XU4781 n1233 n1232 n1228 AND2X1_RVT 
XU4780 n1256 n1255 n1251 AND2X1_RVT 
XU4779 n1279 n1278 n1274 AND2X1_RVT 
XU4778 n1307 n1304 n1300 AND2X1_RVT 
XU4777 n573 n574 n569 AND2X1_RVT 
XU4776 n606 n607 n603 AND2X1_RVT 
XU4775 n629 n630 n626 AND2X1_RVT 
XU4774 n652 n653 n649 AND2X1_RVT 
XU4773 n675 n676 n672 AND2X1_RVT 
XU4772 n698 n699 n695 AND2X1_RVT 
XU4771 n721 n722 n718 AND2X1_RVT 
XU4770 n744 n745 n741 AND2X1_RVT 
XU4769 n767 n768 n764 AND2X1_RVT 
XU4768 n790 n791 n787 AND2X1_RVT 
XU4767 n813 n814 n810 AND2X1_RVT 
XU4766 n836 n837 n833 AND2X1_RVT 
XU4765 n859 n860 n856 AND2X1_RVT 
XU4764 n882 n883 n879 AND2X1_RVT 
XU4763 n905 n906 n902 AND2X1_RVT 
XU4762 n928 n929 n925 AND2X1_RVT 
XU4761 n951 n952 n948 AND2X1_RVT 
XU4760 n974 n975 n971 AND2X1_RVT 
XU4759 n997 n998 n994 AND2X1_RVT 
XU4758 n1020 n1021 n1017 AND2X1_RVT 
XU4757 n1043 n1044 n1040 AND2X1_RVT 
XU4756 n1066 n1067 n1063 AND2X1_RVT 
XU4755 n1089 n1090 n1086 AND2X1_RVT 
XU4754 n1112 n1113 n1109 AND2X1_RVT 
XU4753 n1135 n1136 n1132 AND2X1_RVT 
XU4752 n1158 n1159 n1155 AND2X1_RVT 
XU4751 n1181 n1182 n1178 AND2X1_RVT 
XU4750 n1204 n1205 n1201 AND2X1_RVT 
XU4749 n1227 n1228 n1224 AND2X1_RVT 
XU4748 n1250 n1251 n1247 AND2X1_RVT 
XU4747 n1273 n1274 n1270 AND2X1_RVT 
XU4746 n1299 n1300 n1296 AND2X1_RVT 
XU4745 ras/tos[4] n4555 ras/N45 XOR2X1_RVT 
XU4744 n4554 n1480 n4555 AND2X1_RVT 
XU4743 ras/tos[3] n4554 ras/N44 XOR2X1_RVT 
XU4742 n4553 n4554 ras/N43 OR2X1_RVT 
XU4741 n1481 n4495 n4554 AND2X1_RVT 
XU4740 ras/tos[2] n4552 n4553 AND2X1_RVT 
XU4739 n4551 n4495 ras/N42 OR2X1_RVT 
XU4738 ras/tos[0] ras/tos[1] n4552 OR2X1_RVT 
XU4737 ras/tos[1] ras/tos[0] n4551 AND2X1_RVT 
XU4736 ras/tos[4] n4550 ras/N50 XOR2X1_RVT 
XU4735 ras/tos[3] n4549 n4550 AND2X1_RVT 
XU4734 ras/tos[3] n4549 ras/N49 XOR2X1_RVT 
XU4733 ras/tos[2] n4548 n4549 AND2X1_RVT 
XU4732 ras/tos[2] n4548 ras/N48 XOR2X1_RVT 
XU4731 ras/tos[1] ras/tos[0] n4548 AND2X1_RVT 
XU4730 ras/tos[1] ras/tos[0] ras/N47 XOR2X1_RVT 
XU4729 callPCID_i[9] n4547 ras/N68 XOR2X1_RVT 
XU4728 callPCID_i[8] n4546 ras/N67 XOR2X1_RVT 
XU4727 callPCID_i[7] n4545 ras/N66 XOR2X1_RVT 
XU4726 callPCID_i[6] n4544 ras/N65 XOR2X1_RVT 
XU4725 callPCID_i[5] n4543 ras/N64 XOR2X1_RVT 
XU4724 callPCID_i[4] callPCID_i[3] ras/N63 XOR2X1_RVT 
XU4723 n4542 callPCID_i[31] ras/N90 XOR2X1_RVT 
XU4722 callPCID_i[30] n4541 n4542 AND2X1_RVT 
XU4721 n4541 callPCID_i[30] ras/N89 XOR2X1_RVT 
XU4720 callPCID_i[29] n4540 n4541 AND2X1_RVT 
XU4719 callPCID_i[29] n4540 ras/N88 XOR2X1_RVT 
XU4718 callPCID_i[28] n4539 n4540 AND2X1_RVT 
XU4717 callPCID_i[28] n4539 ras/N87 XOR2X1_RVT 
XU4716 callPCID_i[27] n4538 n4539 AND2X1_RVT 
XU4715 callPCID_i[27] n4538 ras/N86 XOR2X1_RVT 
XU4714 callPCID_i[26] n4537 n4538 AND2X1_RVT 
XU4713 callPCID_i[26] n4537 ras/N85 XOR2X1_RVT 
XU4712 callPCID_i[25] n4536 ras/N84 XOR2X1_RVT 
XU4711 callPCID_i[24] n4535 n4536 AND2X1_RVT 
XU4710 callPCID_i[24] n4535 ras/N83 XOR2X1_RVT 
XU4709 callPCID_i[23] n4534 n4535 AND2X1_RVT 
XU4708 callPCID_i[23] n4534 ras/N82 XOR2X1_RVT 
XU4707 callPCID_i[22] n4533 n4534 AND2X1_RVT 
XU4706 callPCID_i[22] n4533 ras/N81 XOR2X1_RVT 
XU4705 callPCID_i[21] n4532 n4533 AND2X1_RVT 
XU4704 callPCID_i[21] n4532 ras/N80 XOR2X1_RVT 
XU4703 callPCID_i[20] n4531 n4532 AND2X1_RVT 
XU4702 callPCID_i[20] n4531 ras/N79 XOR2X1_RVT 
XU4701 callPCID_i[19] n4530 n4531 AND2X1_RVT 
XU4700 callPCID_i[19] n4530 ras/N78 XOR2X1_RVT 
XU4699 callPCID_i[18] n4529 n4530 AND2X1_RVT 
XU4698 callPCID_i[18] n4529 ras/N77 XOR2X1_RVT 
XU4697 callPCID_i[17] n4528 n4529 AND2X1_RVT 
XU4696 callPCID_i[17] n4528 ras/N76 XOR2X1_RVT 
XU4695 callPCID_i[16] n4527 n4528 AND2X1_RVT 
XU4694 callPCID_i[16] n4527 ras/N75 XOR2X1_RVT 
XU4693 callPCID_i[15] n4526 n4527 AND2X1_RVT 
XU4692 callPCID_i[15] n4526 ras/N74 XOR2X1_RVT 
XU4691 callPCID_i[14] n4525 n4526 AND2X1_RVT 
XU4690 callPCID_i[14] n4525 ras/N73 XOR2X1_RVT 
XU4689 callPCID_i[13] n4524 n4525 AND2X1_RVT 
XU4688 callPCID_i[13] n4524 ras/N72 XOR2X1_RVT 
XU4687 callPCID_i[12] n4523 n4524 AND2X1_RVT 
XU4686 callPCID_i[12] n4523 ras/N71 XOR2X1_RVT 
XU4685 callPCID_i[11] n4522 n4523 AND2X1_RVT 
XU4684 callPCID_i[11] n4522 ras/N70 XOR2X1_RVT 
XU4683 callPCID_i[10] n4521 n4522 AND2X1_RVT 
XU4682 callPCID_i[10] n4521 ras/N69 XOR2X1_RVT 
XU4681 callPCID_i[9] n4547 n4521 AND2X1_RVT 
XU4680 n4546 callPCID_i[8] n4547 AND2X1_RVT 
XU4679 callPCID_i[7] n4545 n4546 AND2X1_RVT 
XU4678 callPCID_i[6] n4544 n4545 AND2X1_RVT 
XU4677 callPCID_i[5] n4543 n4544 AND2X1_RVT 
XU4676 callPCID_i[4] callPCID_i[3] n4543 AND2X1_RVT 
XU4675 pc_o[9] n4520 N49 XOR2X1_RVT 
XU4674 pc_o[8] n4519 N48 XOR2X1_RVT 
XU4673 pc_o[7] n4518 N47 XOR2X1_RVT 
XU4672 pc_o[6] pc_o[5] N46 XOR2X1_RVT 
XU4671 pc_o[31] n4517 N71 XOR2X1_RVT 
XU4670 pc_o[30] n4516 n4517 AND2X1_RVT 
XU4669 pc_o[30] n4516 N70 XOR2X1_RVT 
XU4668 pc_o[29] n4515 n4516 AND2X1_RVT 
XU4667 pc_o[29] n4515 N69 XOR2X1_RVT 
XU4666 pc_o[28] n4514 n4515 AND2X1_RVT 
XU4665 pc_o[28] n4514 N68 XOR2X1_RVT 
XU4664 pc_o[27] n4513 n4514 AND2X1_RVT 
XU4663 pc_o[27] n4513 N67 XOR2X1_RVT 
XU4662 pc_o[26] n4512 n4513 AND2X1_RVT 
XU4661 pc_o[26] n4512 N66 XOR2X1_RVT 
XU4660 pc_o[25] n4511 n4512 AND2X1_RVT 
XU4659 pc_o[25] n4511 N65 XOR2X1_RVT 
XU4658 pc_o[24] n4510 n4511 AND2X1_RVT 
XU4657 pc_o[24] n4510 N64 XOR2X1_RVT 
XU4656 pc_o[23] n4509 n4510 AND2X1_RVT 
XU4655 pc_o[23] n4509 N63 XOR2X1_RVT 
XU4654 pc_o[22] n4508 n4509 AND2X1_RVT 
XU4653 pc_o[22] n4508 N62 XOR2X1_RVT 
XU4652 pc_o[21] n4507 n4508 AND2X1_RVT 
XU4651 pc_o[21] n4507 N61 XOR2X1_RVT 
XU4650 pc_o[20] n4506 n4507 AND2X1_RVT 
XU4649 pc_o[20] n4506 N60 XOR2X1_RVT 
XU4648 pc_o[19] n4505 n4506 AND2X1_RVT 
XU4647 pc_o[19] n4505 N59 XOR2X1_RVT 
XU4646 pc_o[18] n4504 n4505 AND2X1_RVT 
XU4645 pc_o[18] n4504 N58 XOR2X1_RVT 
XU4644 pc_o[17] n4503 n4504 AND2X1_RVT 
XU4643 pc_o[17] n4503 N57 XOR2X1_RVT 
XU4642 pc_o[16] n4502 n4503 AND2X1_RVT 
XU4641 pc_o[16] n4502 N56 XOR2X1_RVT 
XU4640 pc_o[15] n4501 n4502 AND2X1_RVT 
XU4639 pc_o[15] n4501 N55 XOR2X1_RVT 
XU4638 pc_o[14] n4500 n4501 AND2X1_RVT 
XU4637 pc_o[14] n4500 N54 XOR2X1_RVT 
XU4636 pc_o[13] n4499 n4500 AND2X1_RVT 
XU4635 pc_o[13] n4499 N53 XOR2X1_RVT 
XU4634 pc_o[12] n4498 n4499 AND2X1_RVT 
XU4633 pc_o[12] n4498 N52 XOR2X1_RVT 
XU4632 pc_o[11] n4497 n4498 AND2X1_RVT 
XU4631 pc_o[11] n4497 N51 XOR2X1_RVT 
XU4630 pc_o[10] n4496 n4497 AND2X1_RVT 
XU4629 pc_o[10] n4496 N50 XOR2X1_RVT 
XU4628 pc_o[9] n4520 n4496 AND2X1_RVT 
XU4627 n4519 pc_o[8] n4520 AND2X1_RVT 
XU4626 pc_o[7] n4518 n4519 AND2X1_RVT 
XU4625 pc_o[6] pc_o[5] n4518 AND2X1_RVT 
XU4624 n4552 n4495 INVX1_RVT 
XU4623 n1312 n4494 INVX1_RVT 
XU4622 flagCallID_i n4493 INVX1_RVT 
XU4621 exceptionFlag_i n4492 INVX1_RVT 
XU4620 recoverFlag_i n4491 INVX1_RVT 
XU4619 stall_i n4490 INVX1_RVT 
XU4618 n_2_net_ n4489 INVX1_RVT 
XU4617 n736 n4488 INVX1_RVT 
XU4616 n759 n4487 INVX1_RVT 
XU4615 n805 n4486 INVX1_RVT 
XU4614 n828 n4485 INVX1_RVT 
XU4613 n851 n4484 INVX1_RVT 
XU4612 n874 n4483 INVX1_RVT 
XU4611 n897 n4482 INVX1_RVT 
XU4610 n920 n4481 INVX1_RVT 
XU4609 n943 n4480 INVX1_RVT 
XU4608 n966 n4479 INVX1_RVT 
XU4607 n989 n4478 INVX1_RVT 
XU4606 n1012 n4477 INVX1_RVT 
XU4605 n1058 n4476 INVX1_RVT 
XU4604 n1081 n4475 INVX1_RVT 
XU4603 n1104 n4474 INVX1_RVT 
XU4602 n1127 n4473 INVX1_RVT 
XU4601 n1150 n4472 INVX1_RVT 
XU4600 n1173 n4471 INVX1_RVT 
XU4599 n1196 n4470 INVX1_RVT 
XU4598 n1219 n4469 INVX1_RVT 
XU4597 n1242 n4468 INVX1_RVT 
XU4596 n1265 n4467 INVX1_RVT 
XU4595 n563 n4466 INVX1_RVT 
XU4594 n598 n4465 INVX1_RVT 
XU4593 n621 n4464 INVX1_RVT 
XU4592 n644 n4463 INVX1_RVT 
XU4591 n667 n4462 INVX1_RVT 
XU4590 n690 n4461 INVX1_RVT 
XU4589 n713 n4460 INVX1_RVT 
XU4588 n782 n4459 INVX1_RVT 
XU4587 n1035 n4458 INVX1_RVT 
XU4586 n1288 n4457 INVX1_RVT 
XU4585 ras/n2329 n4456 INVX1_RVT 
XU4584 ras/n2326 n4455 INVX1_RVT 
XU4583 ras/n1147 n4454 INVX1_RVT 
XU4582 ras/n615 n4453 INVX1_RVT 
XU4581 ras/n1813 n4452 INVX1_RVT 
XU4580 ras/n1814 n4451 INVX1_RVT 
XU4579 ras/n1745 n4450 INVX1_RVT 
XU4578 reset n4449 INVX1_RVT 
XU4577 reset n4448 INVX1_RVT 
XU4576 n4449 n4447 INVX1_RVT 
XU4575 n4449 n4446 INVX1_RVT 
XU4574 flagRecoverEX_i n4445 INVX1_RVT 
XU4573 n4445 n4444 INVX1_RVT 
XU4572 n4445 n4443 INVX1_RVT 
XU4571 n1478 n4442 INVX1_RVT 
XU4570 n1478 n4441 INVX1_RVT 
XU4569 n1478 n4440 INVX1_RVT 
XU4568 n1477 n4439 INVX1_RVT 
XU4567 n1477 n4438 INVX1_RVT 
XU4566 n1477 n4437 INVX1_RVT 
XU4565 n1476 n4436 INVX1_RVT 
XU4564 n1476 n4435 INVX1_RVT 
XU4563 n1476 n4434 INVX1_RVT 
XU4562 n1470 n4433 INVX1_RVT 
XU4561 n1470 n4432 INVX1_RVT 
XU4560 n1470 n4431 INVX1_RVT 
XU4559 n1475 n4430 INVX1_RVT 
XU4558 n1475 n4429 INVX1_RVT 
XU4557 n1475 n4428 INVX1_RVT 
XU4556 n1474 n4427 INVX1_RVT 
XU4555 n1474 n4426 INVX1_RVT 
XU4554 n1474 n4425 INVX1_RVT 
XU4553 n1473 n4424 INVX1_RVT 
XU4552 n1473 n4423 INVX1_RVT 
XU4551 n1473 n4422 INVX1_RVT 
XU4550 n3595 n4421 INVX1_RVT 
XU4549 n3595 n4420 INVX1_RVT 
XU4548 n3595 n4419 INVX1_RVT 
XU4547 n3596 n4418 INVX1_RVT 
XU4546 n3596 n4417 INVX1_RVT 
XU4545 n3596 n4416 INVX1_RVT 
XU4544 n3597 n4415 INVX1_RVT 
XU4543 n3597 n4414 INVX1_RVT 
XU4542 n3597 n4413 INVX1_RVT 
XU4541 n3598 n4412 INVX1_RVT 
XU4540 n3598 n4411 INVX1_RVT 
XU4539 n3598 n4410 INVX1_RVT 
XU4538 n3599 n4409 INVX1_RVT 
XU4537 n3599 n4408 INVX1_RVT 
XU4536 n3599 n4407 INVX1_RVT 
XU4535 n3583 n4406 INVX1_RVT 
XU4534 n3583 n4405 INVX1_RVT 
XU4533 n3583 n4404 INVX1_RVT 
XU4532 n3584 n4403 INVX1_RVT 
XU4531 n3584 n4402 INVX1_RVT 
XU4530 n3584 n4401 INVX1_RVT 
XU4529 n3585 n4400 INVX1_RVT 
XU4528 n3585 n4399 INVX1_RVT 
XU4527 n3585 n4398 INVX1_RVT 
XU4526 n3586 n4397 INVX1_RVT 
XU4525 n3586 n4396 INVX1_RVT 
XU4524 n3586 n4395 INVX1_RVT 
XU4523 n3587 n4394 INVX1_RVT 
XU4522 n3587 n4393 INVX1_RVT 
XU4521 n3587 n4392 INVX1_RVT 