* Nettran: AMD.64 Release B-2008.09.SP5.HF2.26004 2012/07/19

* Created:  2/07/2016  20:03

* Options: -verilog netlist.v -outName netlist.sp -verilog-b1 VDD -verilog-b0 GND -outType spice 



Vin0	in[0] GND 0.3V

Vin1	in[1] GND 0.15V

Vin2	in[2] GND 0.15V

Vin3	in[3] GND 0.15V

Vin4	in[4] GND 0.15V

Vin5	in[5] GND 0.15V

Vin6	in[6] GND 0.15V

Vin7	in[7] GND 0.15V



Vin0_b	in[0]_b GND 0.15V

Vin1_b	in[1]_b GND 0.3V

Vin2_b	in[2]_b GND 0.3V

Vin3_b	in[3]_b GND 0.3V

Vin4_b	in[4]_b GND 0.3V

Vin5_b	in[5]_b GND 0.3V

Vin6_b	in[6]_b GND 0.3V

Vin7_b	in[7]_b GND 0.3V





*******************************************************************************

* Sub-Circuit Netlist:                                                        *

* Block: OR2_X1                                                               *

*******************************************************************************

.subckt OR2X1_RVT A B Y Ab Bb Yb vp vn

Xp1 Yb vp VDD PTFET w=0.02

Xp2 Y  vp VDD PTFET w=0.02

Xn1 Yb B   1   NTFET w=0.02 

Xn2 Y  Bb  1   NTFET w=0.02

Xn3 1  B   3   NTFET w=0.02

Xn4 Yb A   2   NTFET w=0.02

Xn5 Y  Ab  2   NTFET w=0.02

Xn6 2  Bb  3   NTFET w=0.02

Xn7 3  vn GND NTFET w=0.02

.ends





*******************************************************************************

* Sub-Circuit Netlist:                                                        *

* Block: NAND2_X1                                                             *

*******************************************************************************

.subckt NAND2X1_RVT A B Y Ab Bb Yb vp vn

* NAND2

Xp1 Y1  vp VDD PTFET w=0.02

Xp2 Y1b vp VDD PTFET w=0.02

Xn1 Y1  B   1   NTFET w=0.02

Xn2 Y1b Bb  1   NTFET w=0.02

Xn3 1   A   3   NTFET w=0.02

Xn4 Y1  A   2   NTFET w=0.02

Xn5 Y1b Ab  2   NTFET w=0.02

Xn6 2   Ab  3   NTFET w=0.02

Xn7 3  vn GND NTFET w=0.02

* buffer

Xbp4 Yb vp VDD PTFET W=0.025

Xbp5 Y  vp VDD PTFET W=0.025

Xbn4 Yb Y1  4   NTFET W=0.02

Xbn5 Y  Y1b 4   NTFET W=0.02

Xbn6 4  vn GND NTFET W=0.02

.ends





*******************************************************************************

* Sub-Circuit Netlist:                                                        *

* Block: AND2_X1                                                              *

*******************************************************************************

.subckt AND2X1_RVT A B Y Ab Bb Yb vp vn

* AND2

Xp1 Y1b vp VDD PTFET w=0.02

Xp2 Y1  vp VDD PTFET w=0.02

Xn1 Y1b B   1   NTFET w=0.02

Xn2 Y1  Bb  1   NTFET w=0.02

Xn3 1   A   3   NTFET w=0.02

Xn4 Y1b A   2   NTFET w=0.02

Xn5 Y1  Ab  2   NTFET w=0.02

Xn6 2   Ab  3   NTFET w=0.02

Xn7 3   vn GND NTFET w=0.02

* buffer

Xbp1 Y2b vp VDD PTFET W=0.026

Xbp2 Y2  vp VDD PTFET W=0.026

Xbn1 Y2b Y1  4   NTFET W=0.02

Xbn2 Y2  Y1b 4   NTFET W=0.02

Xbn3 4  vn GND NTFET W=0.02

* buffer

Xbp4 Yb vp VDD PTFET W=0.025

Xbp5 Y  vp VDD PTFET W=0.025

Xbn4 Yb Y2  5   NTFET W=0.02

Xbn5 Y  Y2b 5   NTFET W=0.02

Xbn6 5  vn GND NTFET W=0.02

.ends





*******************************************************************************

* Sub-Circuit Netlist:                                                        *

* Block: AND2_X2                                                              *

*******************************************************************************

.subckt AND2_X2 A B Ab Bb vp vn Y Yb

* AND2

Xp1 Y1b vp VDD PTFET w=0.04

Xp2 Y1  vp VDD PTFET w=0.04

Xn1 Y1b B   1   NTFET w=0.04

Xn2 Y1  Bb  1   NTFET w=0.04

Xn3 1   A   3   NTFET w=0.04

Xn4 Y1b A   2   NTFET w=0.04

Xn5 Y1  Ab  2   NTFET w=0.04

Xn6 2   Ab  3   NTFET w=0.04

Xn7 3   vn GND NTFET w=0.04

* buffer

Xbp1 Y2b vp VDD PTFET W=0.026

Xbp2 Y2  vp VDD PTFET W=0.026

Xbn1 Y2b Y1  4   NTFET W=0.02

Xbn2 Y2  Y1b 4   NTFET W=0.02

Xbn3 4  vn GND NTFET W=0.02

* buffer

Xbp4 Yb vp VDD PTFET W=0.025

Xbp5 Y  vp VDD PTFET W=0.025

Xbn4 Yb Y2  5   NTFET W=0.02

Xbn5 Y  Y2b 5   NTFET W=0.02

Xbn6 5  vn GND NTFET W=0.02

.ends







*******************************************************************************

* Sub-Circuit Netlist:                                                        *

* Block: AND4_X1                                                              *

*******************************************************************************

.subckt AND4X1_RVT A B C D Y Ab Bb Cb Db Yb vp vn

X1 A B out1 Ab Bb out1b vp vn AND2X1_RVT

*X2 out1 out1b vp vn out3 out3b BUF_X1

X3 C D out2 Cb Db out2b vp vn AND2X1_RVT

*X4 out2 out2b vp vn out4 out4b BUF_X1

X5 out1 out2 Y out1b out2b Yb vp vn AND2X1_RVT

*X6 out5 out5b vp vn out6 out6b BUF_X1

*X7 out6 out6b vp vn Y Yb BUF_X1

.ends





*******************************************************************************

* Sub-Circuit Netlist:                                                        *

* Block: INV_X1                                                               *

*******************************************************************************

.subckt INVX1_RVT IN Y INb Yb vp vn

Xp1 Y  vp VDD PTFET W=0.025

Xp2 Yb vp VDD PTFET W=0.025

Xn1 Y  IN  1   NTFET W=0.02

Xn2 Yb INb 1   NTFET W=0.02

Xn3 1  vn GND NTFET W=0.02

.ends





*******************************************************************************

* Sub-Circuit Netlist:                                                        *

* Block: XOR2_X1                                                              *

*******************************************************************************

.subckt XOR2X1_RVT A B Y Ab Bb Yb vp vn

Xp1 Yb vp VDD PTFET w=0.02

Xp2 Y  vp VDD PTFET w=0.02

Xn1 Y  B   1   NTFET w=0.02 

Xn2 Yb Bb  1   NTFET w=0.02

Xn3 1  A   3   NTFET w=0.028

Xn4 Y  Bb  2   NTFET w=0.02

Xn5 Yb B   2   NTFET w=0.02

Xn6 2  Ab  3   NTFET w=0.028

Xn7 3  vn GND NTFET w=0.02

.ends





*******************************************************************************

* Sub-Circuit Netlist:                                                        *

* Block: DLATCH_X1                                                            *

*******************************************************************************

.subckt DLATCH_X1 D Db CLK CLKb vp vn Q Qb

Xp1 Qb vp VDD PTFET w=0.02

Xp2 Q  vp VDD PTFET w=0.02

Xn1 Qb D   1   NTFET w=0.02

Xn2 Q  Db  1   NTFET w=0.02

Xn3 1  CLKb 3   NTFET w=0.022

Xn4 Qb Q   2   NTFET w=0.02

Xn5 Q  Qb  2   NTFET w=0.02

Xn6 2  CLK 3   NTFET w=0.022

Xn7 3  vn GND NTFET w=0.02

.ends





*******************************************************************************

* Sub-Circuit Netlist:                                                        *

* Block: DFF_X1                                                               *

*******************************************************************************

.subckt DFFX1_RVT D CLK Q Db CLKb Qb vp vn

X_dlatch1 D  Db  CLK  CLKb vp  vn Qm Qmb DLATCH_X1

X_dlatch2 Qm Qmb CLKb CLK  vp  vn Q  Qb  DLATCH_X1

.ends





*******************************************************************************

* Sub-Circuit Netlist:                                                        *

* Block: MUX2_X1                                                              *

*******************************************************************************

.subckt MUX21X1_RVT A B SEL Y Ab Bb SELb Yb vp vn

Xp1 Y  vp VDD PTFET w=0.02

Xp2 Yb vp VDD PTFET w=0.02

Xn1 Yb A   1   NTFET w=0.02

Xn2 Y  Ab  1   NTFET w=0.02

Xn3 1  SELb 3   NTFET w=0.02

Xn4 Yb B   2   NTFET w=0.02

Xn5 Y  Bb  2   NTFET w=0.02

Xn6 2  SEL  3   NTFET w=0.02

Xn7 3  vn GND NTFET w=0.02

.ends





*******************************************************************************

* Sub-Circuit Netlist:                                                        *

* Block: NMUX2_X1                                                             *

*******************************************************************************

.subckt NMUX2_X1 A B Ab Bb SEL SELb vp vn Y Yb

Xp1 Yb vp VDD PTFET w=0.02

Xp2 Y  vp VDD PTFET w=0.02

Xn1 Y  A   1   NTFET w=0.02

Xn2 Yb Ab  1   NTFET w=0.02

Xn3 1  SELb 3  NTFET w=0.02

Xn4 Y  B   2   NTFET w=0.02

Xn5 Yb Bb  2   NTFET w=0.02

Xn6 2  SEL 3   NTFET w=0.02

Xn7 3  vn GND NTFET w=0.02

.ends



.SUBCKT S_Box clk clk_b in[7] in[6] in[5] in[4] in[3] in[2] in[1] in[0] 

+ in[7]_b in[6]_b in[5]_b in[4]_b in[3]_b in[2]_b in[1]_b in[0]_b 

+ out[7] out[6] out[5] out[4] out[3] out[2] out[1] out[0] 

+ out[7]_b out[6]_b out[5]_b out[4]_b out[3]_b out[2]_b out[1]_b out[0]_b 

+ vp vn 



XU797 in[0] n795 in[0]_b n795_b vp vn INVX1_RVT

XU796 in[0] n794 in[0]_b n794_b vp vn INVX1_RVT

XU795 in[5] n35 n125 in[5]_b n35_b n125_b vp vn OR2X1_RVT

XU794 in[2] n44 n136 in[2]_b n44_b n136_b vp vn OR2X1_RVT

XU793 in[0] n136 n202 in[0]_b n136_b n202_b vp vn OR2X1_RVT

XU792 n125 n202 n786 n125_b n202_b n786_b vp vn OR2X1_RVT

XU791 n40 n35 n111 n40_b n35_b n111_b vp vn OR2X1_RVT

XU790 in[0] in[1] n470 in[0]_b in[1]_b n470_b vp vn AND2X1_RVT

XU789 n111 n41 n787 n111_b n41_b n787_b vp vn OR2X1_RVT

XU788 n40 n44 n126 n40_b n44_b n126_b vp vn OR2X1_RVT

XU787 in[5] in[3] n551 in[5]_b in[3]_b n551_b vp vn AND2X1_RVT

XU786 n126 n28 n520 n126_b n28_b n520_b vp vn OR2X1_RVT

XU785 in[4] n27 n165 in[4]_b n27_b n165_b vp vn OR2X1_RVT

XU784 in[3] in[2] n88 in[3]_b in[2]_b n88_b vp vn OR2X1_RVT

XU783 n165 n88 n789 n165_b n88_b n789_b vp vn OR2X1_RVT

XU782 n44 in[0] n94 n44_b in[0]_b n94_b vp vn AND2X1_RVT

XU781 in[2] n795 n78 in[2]_b n795_b n78_b vp vn OR2X1_RVT

XU780 n42 n78 n227 n42_b n78_b n227_b vp vn AND2X1_RVT

XU779 n35 in[4] n176 n35_b in[4]_b n176_b vp vn AND2X1_RVT

XU778 n227 n31 n790 n227_b n31_b n790_b vp vn OR2X1_RVT

XU777 in[2] n30 n446 in[2]_b n30_b n446_b vp vn OR2X1_RVT

XU776 n88 n446 n793 n88_b n446_b n793_b vp vn AND2X1_RVT

XU775 n793 n42 n791 n793_b n42_b n791_b vp vn OR2X1_RVT

XU774 in[1] n27 n792 in[1]_b n27_b n792_b vp vn OR2X1_RVT

XU773 n78 n792 n607 n78_b n792_b n607_b vp vn OR2X1_RVT

XU772 n789 n790 n791 n607 n788 n789_b n790_b n791_b n607_b n788_b vp vn AND4X1_RVT

XU771 n786 n787 n520 n788 n785 n786_b n787_b n520_b n788_b n785_b vp vn AND4X1_RVT

XU770 n21 in[6] n553 n21_b in[6]_b n553_b vp vn AND2X1_RVT

XU769 n785 n17 n766 n785_b n17_b n766_b vp vn OR2X1_RVT

XU768 n24 n21 n63 n24_b n21_b n63_b vp vn OR2X1_RVT

XU767 n27 n30 n460 n27_b n30_b n460_b vp vn AND2X1_RVT

XU766 n63 n26 n214 n63_b n26_b n214_b vp vn OR2X1_RVT

XU765 n126 n214 n767 n126_b n214_b n767_b vp vn OR2X1_RVT

XU764 in[2] n35 n145 in[2]_b n35_b n145_b vp vn OR2X1_RVT

XU763 in[5] in[4] n640 in[5]_b in[4]_b n640_b vp vn AND2X1_RVT

XU762 n25 n17 n85 n25_b n17_b n85_b vp vn OR2X1_RVT

XU761 n145 n85 n777 n145_b n85_b n777_b vp vn OR2X1_RVT

XU760 n21 n24 n59 n21_b n24_b n59_b vp vn AND2X1_RVT

XU759 n26 n19 n213 n26_b n19_b n213_b vp vn OR2X1_RVT

XU758 n63 n25 n79 n63_b n25_b n79_b vp vn OR2X1_RVT

XU757 n213 n79 n784 n213_b n79_b n784_b vp vn AND2X1_RVT

XU756 n784 n111 n778 n784_b n111_b n778_b vp vn OR2X1_RVT

XU755 n24 n27 n95 n24_b n27_b n95_b vp vn AND2X1_RVT

XU754 in[7] n23 n782 in[7]_b n23_b n782_b vp vn OR2X1_RVT

XU753 n35 n30 n58 n35_b n30_b n58_b vp vn OR2X1_RVT

XU752 n27 in[7] n637 n27_b in[7]_b n637_b vp vn AND2X1_RVT

XU751 n58 n14 n783 n58_b n14_b n783_b vp vn OR2X1_RVT

XU750 n782 n783 n781 n782_b n783_b n781_b vp vn AND2X1_RVT

XU749 n44 in[2] n463 n44_b in[2]_b n463_b vp vn AND2X1_RVT

XU748 n781 n37 n779 n781_b n37_b n779_b vp vn OR2X1_RVT

XU747 n40 n44 n552 n40_b n44_b n552_b vp vn AND2X1_RVT

XU746 in[4] n21 n287 in[4]_b n21_b n287_b vp vn OR2X1_RVT

XU745 n38 n287 n780 n38_b n287_b n780_b vp vn OR2X1_RVT

XU744 n777 n778 n779 n780 n776 n777_b n778_b n779_b n780_b n776_b vp vn AND4X1_RVT

XU743 in[0] n776 n768 in[0]_b n776_b n768_b vp vn OR2X1_RVT

XU742 n28 n136 n771 n28_b n136_b n771_b vp vn OR2X1_RVT

XU741 n37 n125 n772 n37_b n125_b n772_b vp vn OR2X1_RVT

XU740 n35 in[2] n459 n35_b in[2]_b n459_b vp vn AND2X1_RVT

XU739 n34 n41 n773 n34_b n41_b n773_b vp vn OR2X1_RVT

XU738 n40 n795 n177 n40_b n795_b n177_b vp vn AND2X1_RVT

XU737 n39 n145 n775 n39_b n145_b n775_b vp vn AND2X1_RVT

XU736 in[5] n30 n259 in[5]_b n30_b n259_b vp vn OR2X1_RVT

XU735 n775 n259 n774 n775_b n259_b n774_b vp vn OR2X1_RVT

XU734 n771 n772 n773 n774 n770 n771_b n772_b n773_b n774_b n770_b vp vn AND4X1_RVT

XU733 n770 n19 n769 n770_b n19_b n769_b vp vn OR2X1_RVT

XU732 n766 n767 n768 n769 n714 n766_b n767_b n768_b n769_b n714_b vp vn AND4X1_RVT

XU731 n40 n30 n185 n40_b n30_b n185_b vp vn OR2X1_RVT

XU730 n185 n41 n199 n185_b n41_b n199_b vp vn OR2X1_RVT

XU729 n23 n199 n747 n23_b n199_b n747_b vp vn OR2X1_RVT

XU728 n165 n19 n96 n165_b n19_b n96_b vp vn OR2X1_RVT

XU727 n24 in[7] n178 n24_b in[7]_b n178_b vp vn AND2X1_RVT

XU726 n11 n259 n247 n11_b n259_b n247_b vp vn OR2X1_RVT

XU725 n96 n247 n765 n96_b n247_b n765_b vp vn AND2X1_RVT

XU724 n765 n34 n764 n765_b n34_b n764_b vp vn OR2X1_RVT

XU723 n165 n63 n272 n165_b n63_b n272_b vp vn OR2X1_RVT

XU722 n272 n145 n268 n272_b n145_b n268_b vp vn OR2X1_RVT

XU721 n764 n268 n763 n764_b n268_b n763_b vp vn AND2X1_RVT

XU720 n26 n17 n71 n26_b n17_b n71_b vp vn OR2X1_RVT

XU719 n71 n145 n541 n71_b n145_b n541_b vp vn OR2X1_RVT

XU718 n763 n541 n762 n763_b n541_b n762_b vp vn AND2X1_RVT

XU717 n762 n44 n748 n762_b n44_b n748_b vp vn OR2X1_RVT

XU716 in[5] n24 n114 in[5]_b n24_b n114_b vp vn OR2X1_RVT

XU715 in[2] in[0] n636 in[2]_b in[0]_b n636_b vp vn AND2X1_RVT

XU714 n114 n36 n759 n114_b n36_b n759_b vp vn OR2X1_RVT

XU713 n14 n38 n760 n14_b n38_b n760_b vp vn OR2X1_RVT

XU712 in[6] n27 n415 in[6]_b n27_b n415_b vp vn OR2X1_RVT

XU711 n42 n415 n761 n42_b n415_b n761_b vp vn OR2X1_RVT

XU710 n44 n794 n530 n44_b n794_b n530_b vp vn AND2X1_RVT

XU709 n21 n27 n184 n21_b n27_b n184_b vp vn OR2X1_RVT

XU708 n43 n184 n87 n43_b n184_b n87_b vp vn OR2X1_RVT

XU707 n759 n760 n761 n87 n758 n759_b n760_b n761_b n87_b n758_b vp vn AND4X1_RVT

XU706 in[4] n35 n116 in[4]_b n35_b n116_b vp vn OR2X1_RVT

XU705 n758 n116 n756 n758_b n116_b n756_b vp vn OR2X1_RVT

XU704 in[0] n44 n56 in[0]_b n44_b n56_b vp vn OR2X1_RVT

XU703 n11 n56 n566 n11_b n56_b n566_b vp vn OR2X1_RVT

XU702 n28 n566 n757 n28_b n566_b n757_b vp vn OR2X1_RVT

XU701 n756 n757 n749 n756_b n757_b n749_b vp vn AND2X1_RVT

XU700 in[3] in[1] n639 in[3]_b in[1]_b n639_b vp vn AND2X1_RVT

XU699 n63 n259 n86 n63_b n259_b n86_b vp vn OR2X1_RVT

XU698 n32 n86 n540 n32_b n86_b n540_b vp vn OR2X1_RVT

XU697 in[4] n24 n755 in[4]_b n24_b n755_b vp vn OR2X1_RVT

XU696 n126 n755 n752 n126_b n755_b n752_b vp vn OR2X1_RVT

XU695 in[5] in[3] n239 in[5]_b in[3]_b n239_b vp vn OR2X1_RVT

XU694 n11 n239 n754 n11_b n239_b n754_b vp vn OR2X1_RVT

XU693 n136 n754 n753 n136_b n754_b n753_b vp vn OR2X1_RVT

XU692 in[7] n27 n189 in[7]_b n27_b n189_b vp vn OR2X1_RVT

XU691 n31 n189 n80 n31_b n189_b n80_b vp vn OR2X1_RVT

XU690 n540 n752 n753 n80 n751 n540_b n752_b n753_b n80_b n751_b vp vn AND4X1_RVT

XU689 n751 n795 n750 n751_b n795_b n750_b vp vn OR2X1_RVT

XU688 n747 n748 n749 n750 n715 n747_b n748_b n749_b n750_b n715_b vp vn AND4X1_RVT

XU687 n38 n39 n728 n38_b n39_b n728_b vp vn AND2X1_RVT

XU686 n728 n189 n744 n728_b n189_b n744_b vp vn OR2X1_RVT

XU685 n126 n36 n746 n126_b n36_b n746_b vp vn AND2X1_RVT

XU684 n746 n63 n745 n746_b n63_b n745_b vp vn OR2X1_RVT

XU683 n744 n745 n742 n744_b n745_b n742_b vp vn AND2X1_RVT

XU682 n37 n794 n82 n37_b n794_b n82_b vp vn OR2X1_RVT

XU681 n14 n82 n743 n14_b n82_b n743_b vp vn OR2X1_RVT

XU680 n742 n743 n741 n742_b n743_b n741_b vp vn AND2X1_RVT

XU679 n30 n35 n201 n30_b n35_b n201_b vp vn AND2X1_RVT

XU678 n741 n29 n732 n741_b n29_b n732_b vp vn OR2X1_RVT

XU677 n31 n184 n137 n31_b n184_b n137_b vp vn OR2X1_RVT

XU676 n111 n86 n740 n111_b n86_b n740_b vp vn OR2X1_RVT

XU675 n137 n740 n739 n137_b n740_b n739_b vp vn AND2X1_RVT

XU674 in[1] n739 n733 in[1]_b n739_b n733_b vp vn OR2X1_RVT

XU673 in[0] n126 n166 in[0]_b n126_b n166_b vp vn OR2X1_RVT

XU672 n114 n166 n738 n114_b n166_b n738_b vp vn OR2X1_RVT

XU671 n24 n27 n149 n24_b n27_b n149_b vp vn OR2X1_RVT

XU670 n37 n149 n119 n37_b n149_b n119_b vp vn OR2X1_RVT

XU669 n738 n119 n737 n738_b n119_b n737_b vp vn AND2X1_RVT

XU668 n737 n31 n734 n737_b n31_b n734_b vp vn OR2X1_RVT

XU667 n31 n415 n611 n31_b n415_b n611_b vp vn OR2X1_RVT

XU666 n85 n611 n736 n85_b n611_b n736_b vp vn AND2X1_RVT

XU665 n736 n36 n735 n736_b n36_b n735_b vp vn OR2X1_RVT

XU664 n732 n733 n734 n735 n716 n732_b n733_b n734_b n735_b n716_b vp vn AND4X1_RVT

XU663 in[3] n86 n206 in[3]_b n86_b n206_b vp vn OR2X1_RVT

XU662 in[6] n30 n731 in[6]_b n30_b n731_b vp vn OR2X1_RVT

XU661 n145 n731 n730 n145_b n731_b n730_b vp vn OR2X1_RVT

XU660 n206 n730 n729 n206_b n730_b n729_b vp vn AND2X1_RVT

XU659 n729 n56 n718 n729_b n56_b n718_b vp vn OR2X1_RVT

XU658 in[3] n27 n190 in[3]_b n27_b n190_b vp vn OR2X1_RVT

XU657 n728 n63 n727 n728_b n63_b n727_b vp vn OR2X1_RVT

XU656 n190 n727 n719 n190_b n727_b n719_b vp vn OR2X1_RVT

XU655 n149 n23 n726 n149_b n23_b n726_b vp vn AND2X1_RVT

XU654 n726 n42 n725 n726_b n42_b n725_b vp vn OR2X1_RVT

XU653 n446 n725 n723 n446_b n725_b n723_b vp vn OR2X1_RVT

XU652 n25 n111 n724 n25_b n111_b n724_b vp vn OR2X1_RVT

XU651 n19 n724 n103 n19_b n724_b n103_b vp vn OR2X1_RVT

XU650 in[0] n103 n180 in[0]_b n103_b n180_b vp vn OR2X1_RVT

XU649 n723 n180 n720 n723_b n180_b n720_b vp vn AND2X1_RVT

XU648 n58 n136 n722 n58_b n136_b n722_b vp vn OR2X1_RVT

XU647 n415 n722 n721 n415_b n722_b n721_b vp vn OR2X1_RVT

XU646 n718 n719 n720 n721 n717 n718_b n719_b n720_b n721_b n717_b vp vn AND4X1_RVT

XU645 n714 n715 n716 n717 n713 n714_b n715_b n716_b n717_b n713_b vp vn AND4X1_RVT

XU644 n17 n259 n75 n17_b n259_b n75_b vp vn OR2X1_RVT

XU643 n111 n75 n703 n111_b n75_b n703_b vp vn OR2X1_RVT

XU642 n177 n35 n711 n177_b n35_b n711_b vp vn AND2X1_RVT

XU641 n639 n795 n712 n639_b n795_b n712_b vp vn AND2X1_RVT

XU640 n711 n712 n710 n711_b n712_b n710_b vp vn OR2X1_RVT

XU639 n33 n85 n704 n33_b n85_b n704_b vp vn OR2X1_RVT

XU638 n272 n37 n705 n272_b n37_b n705_b vp vn OR2X1_RVT

XU637 n19 n239 n84 n19_b n239_b n84_b vp vn OR2X1_RVT

XU636 n84 n40 n708 n84_b n40_b n708_b vp vn OR2X1_RVT

XU635 n38 n75 n709 n38_b n75_b n709_b vp vn OR2X1_RVT

XU634 n708 n709 n263 n708_b n709_b n263_b vp vn AND2X1_RVT

XU633 n166 n137 n707 n166_b n137_b n707_b vp vn OR2X1_RVT

XU632 n263 n707 n706 n263_b n707_b n706_b vp vn AND2X1_RVT

XU631 n703 n704 n705 n706 n626 n703_b n704_b n705_b n706_b n626_b vp vn AND4X1_RVT

XU630 n78 n611 n694 n78_b n611_b n694_b vp vn OR2X1_RVT

XU629 n795 n38 n426 n795_b n38_b n426_b vp vn OR2X1_RVT

XU628 n190 n426 n699 n190_b n426_b n699_b vp vn OR2X1_RVT

XU627 in[0] n28 n702 in[0]_b n28_b n702_b vp vn OR2X1_RVT

XU626 n116 n702 n701 n116_b n702_b n701_b vp vn AND2X1_RVT

XU625 n701 n37 n700 n701_b n37_b n700_b vp vn OR2X1_RVT

XU624 n699 n700 n697 n699_b n700_b n697_b vp vn AND2X1_RVT

XU623 n259 n126 n698 n259_b n126_b n698_b vp vn OR2X1_RVT

XU622 n697 n698 n696 n697_b n698_b n696_b vp vn AND2X1_RVT

XU621 n696 n19 n695 n696_b n19_b n695_b vp vn OR2X1_RVT

XU620 n694 n695 n666 n694_b n695_b n666_b vp vn AND2X1_RVT

XU619 in[0] n40 n693 in[0]_b n40_b n693_b vp vn OR2X1_RVT

XU618 n23 n693 n685 n23_b n693_b n685_b vp vn OR2X1_RVT

XU617 n636 n637 in[1] in[6] n692 n636_b n637_b in[1]_b in[6]_b n692_b vp vn AND4X1_RVT

XU616 in[7] in[5] n373 in[7]_b in[5]_b n373_b vp vn OR2X1_RVT

XU615 n166 n373 n686 n166_b n373_b n686_b vp vn OR2X1_RVT

XU614 in[1] n149 n690 in[1]_b n149_b n690_b vp vn OR2X1_RVT

XU613 n43 n11 n691 n43_b n11_b n691_b vp vn OR2X1_RVT

XU612 n690 n691 n688 n690_b n691_b n688_b vp vn AND2X1_RVT

XU611 n19 n126 n689 n19_b n126_b n689_b vp vn OR2X1_RVT

XU610 n688 n689 n687 n688_b n689_b n687_b vp vn AND2X1_RVT

XU609 n685 n15 n686 n687 n684 n685_b n15_b n686_b n687_b n684_b vp vn AND4X1_RVT

XU608 n684 n29 n667 n684_b n29_b n667_b vp vn OR2X1_RVT

XU607 n36 n202 n683 n36_b n202_b n683_b vp vn AND2X1_RVT

XU606 n683 in[3] n682 n683_b in[3]_b n682_b vp vn AND2X1_RVT

XU605 n682 n213 n678 n682_b n213_b n678_b vp vn OR2X1_RVT

XU604 n145 n42 n681 n145_b n42_b n681_b vp vn AND2X1_RVT

XU603 n681 n38 n680 n681_b n38_b n680_b vp vn AND2X1_RVT

XU602 n11 n25 n148 n11_b n25_b n148_b vp vn OR2X1_RVT

XU601 n680 n148 n679 n680_b n148_b n679_b vp vn OR2X1_RVT

XU600 n678 n679 n668 n678_b n679_b n668_b vp vn AND2X1_RVT

XU599 n38 n28 n673 n38_b n28_b n673_b vp vn OR2X1_RVT

XU598 n111 n44 n676 n111_b n44_b n676_b vp vn OR2X1_RVT

XU597 n794 n126 n677 n794_b n126_b n677_b vp vn OR2X1_RVT

XU596 n676 n677 n675 n676_b n677_b n675_b vp vn AND2X1_RVT

XU595 n675 n165 n674 n675_b n165_b n674_b vp vn OR2X1_RVT

XU594 n673 n674 n671 n673_b n674_b n671_b vp vn AND2X1_RVT

XU593 in[1] n58 n672 in[1]_b n58_b n672_b vp vn OR2X1_RVT

XU592 n671 n672 n670 n671_b n672_b n670_b vp vn AND2X1_RVT

XU591 n670 n11 n669 n670_b n11_b n669_b vp vn OR2X1_RVT

XU590 n666 n667 n668 n669 n627 n666_b n667_b n668_b n669_b n627_b vp vn AND4X1_RVT

XU589 n373 n58 n665 n373_b n58_b n665_b vp vn OR2X1_RVT

XU588 n665 n214 n568 n665_b n214_b n568_b vp vn AND2X1_RVT

XU587 n568 n426 n651 n568_b n426_b n651_b vp vn OR2X1_RVT

XU586 n58 n36 n441 n58_b n36_b n441_b vp vn OR2X1_RVT

XU585 n43 n78 n378 n43_b n78_b n378_b vp vn AND2X1_RVT

XU584 n378 n165 n662 n378_b n165_b n662_b vp vn OR2X1_RVT

XU583 in[5] n40 n664 in[5]_b n40_b n664_b vp vn OR2X1_RVT

XU582 n42 n664 n663 n42_b n664_b n663_b vp vn OR2X1_RVT

XU581 n441 n662 n663 n199 n661 n441_b n662_b n663_b n199_b n661_b vp vn AND4X1_RVT

XU580 n661 n17 n652 n661_b n17_b n652_b vp vn OR2X1_RVT

XU579 n44 n145 n444 n44_b n145_b n444_b vp vn OR2X1_RVT

XU578 n96 n444 n659 n96_b n444_b n659_b vp vn OR2X1_RVT

XU577 in[0] n86 n329 in[0]_b n86_b n329_b vp vn OR2X1_RVT

XU576 n34 n329 n660 n34_b n329_b n660_b vp vn OR2X1_RVT

XU575 n659 n660 n653 n659_b n660_b n653_b vp vn AND2X1_RVT

XU574 n14 n114 n478 n14_b n114_b n478_b vp vn AND2X1_RVT

XU573 n478 n116 n658 n478_b n116_b n658_b vp vn OR2X1_RVT

XU572 n63 n125 n274 n63_b n125_b n274_b vp vn OR2X1_RVT

XU571 n658 n274 n656 n658_b n274_b n656_b vp vn AND2X1_RVT

XU570 n31 n23 n657 n31_b n23_b n657_b vp vn OR2X1_RVT

XU569 n656 n657 n655 n656_b n657_b n655_b vp vn AND2X1_RVT

XU568 n655 n39 n654 n655_b n39_b n654_b vp vn OR2X1_RVT

XU567 n651 n652 n653 n654 n628 n651_b n652_b n653_b n654_b n628_b vp vn AND4X1_RVT

XU566 n14 n116 n650 n14_b n116_b n650_b vp vn OR2X1_RVT

XU565 n206 n650 n649 n206_b n650_b n649_b vp vn AND2X1_RVT

XU564 n649 n43 n630 n649_b n43_b n630_b vp vn OR2X1_RVT

XU563 n111 n42 n647 n111_b n42_b n647_b vp vn OR2X1_RVT

XU562 n43 n145 n648 n43_b n145_b n648_b vp vn OR2X1_RVT

XU561 n647 n648 n646 n647_b n648_b n646_b vp vn AND2X1_RVT

XU560 n646 n21 n645 n646_b n21_b n645_b vp vn OR2X1_RVT

XU559 n30 n645 n631 n30_b n645_b n631_b vp vn OR2X1_RVT

XU558 n184 n116 n106 n184_b n116_b n106_b vp vn OR2X1_RVT

XU557 n259 n23 n644 n259_b n23_b n644_b vp vn AND2X1_RVT

XU556 n644 n88 n643 n644_b n88_b n643_b vp vn OR2X1_RVT

XU555 n106 n643 n642 n106_b n643_b n642_b vp vn AND2X1_RVT

XU554 n642 n41 n632 n642_b n41_b n632_b vp vn OR2X1_RVT

XU553 n27 n63 n641 n27_b n63_b n641_b vp vn OR2X1_RVT

XU552 n31 n641 n554 n31_b n641_b n554_b vp vn OR2X1_RVT

XU551 n36 n554 n548 n36_b n554_b n548_b vp vn OR2X1_RVT

XU550 n639 in[0] n59 n640 n638 n639_b in[0]_b n59_b n640_b n638_b vp vn AND4X1_RVT

XU549 n548 n20 n634 n548_b n20_b n634_b vp vn AND2X1_RVT

XU548 n636 n637 in[3] n24 n635 n636_b n637_b in[3]_b n24_b n635_b vp vn AND4X1_RVT

XU547 n634 n16 n633 n634_b n16_b n633_b vp vn AND2X1_RVT

XU546 n630 n631 n632 n633 n629 n630_b n631_b n632_b n633_b n629_b vp vn AND4X1_RVT

XU545 n626 n627 n628 n629 n625 n626_b n627_b n628_b n629_b n625_b vp vn AND4X1_RVT

XU544 n166 n85 n612 n166_b n85_b n612_b vp vn OR2X1_RVT

XU543 in[4] n40 n354 in[4]_b n40_b n354_b vp vn OR2X1_RVT

XU542 n354 n116 n623 n354_b n116_b n623_b vp vn AND2X1_RVT

XU541 in[5] n32 n624 in[5]_b n32_b n624_b vp vn OR2X1_RVT

XU540 n623 n624 n622 n623_b n624_b n622_b vp vn AND2X1_RVT

XU539 n622 n19 n615 n622_b n19_b n615_b vp vn OR2X1_RVT

XU538 n23 n116 n621 n23_b n116_b n621_b vp vn OR2X1_RVT

XU537 n84 n621 n620 n84_b n621_b n620_b vp vn AND2X1_RVT

XU536 n620 n37 n616 n620_b n37_b n616_b vp vn OR2X1_RVT

XU535 in[7] n26 n619 in[7]_b n26_b n619_b vp vn OR2X1_RVT

XU534 n111 n619 n617 n111_b n619_b n617_b vp vn OR2X1_RVT

XU533 n40 n58 n465 n40_b n58_b n465_b vp vn OR2X1_RVT

XU532 n184 n465 n618 n184_b n465_b n618_b vp vn OR2X1_RVT

XU531 n615 n616 n617 n618 n614 n615_b n616_b n617_b n618_b n614_b vp vn AND4X1_RVT

XU530 in[0] n614 n613 in[0]_b n614_b n613_b vp vn OR2X1_RVT

XU529 n612 n613 n596 n612_b n613_b n596_b vp vn AND2X1_RVT

XU528 n136 n148 n597 n136_b n148_b n597_b vp vn OR2X1_RVT

XU527 n56 in[2] n62 n56_b in[2]_b n62_b vp vn AND2X1_RVT

XU526 n63 n239 n246 n63_b n239_b n246_b vp vn OR2X1_RVT

XU525 n62 n246 n609 n62_b n246_b n609_b vp vn OR2X1_RVT

XU524 n202 n611 n610 n202_b n611_b n610_b vp vn OR2X1_RVT

XU523 n609 n610 n598 n609_b n610_b n598_b vp vn AND2X1_RVT

XU522 n78 n116 n514 n78_b n116_b n514_b vp vn OR2X1_RVT

XU521 n227 n28 n601 n227_b n28_b n601_b vp vn OR2X1_RVT

XU520 n29 n202 n602 n29_b n202_b n602_b vp vn OR2X1_RVT

XU519 in[4] n795 n608 in[4]_b n795_b n608_b vp vn OR2X1_RVT

XU518 n28 n608 n425 n28_b n608_b n425_b vp vn OR2X1_RVT

XU517 n425 n607 n604 n425_b n607_b n604_b vp vn AND2X1_RVT

XU516 in[3] n165 n606 in[3]_b n165_b n606_b vp vn OR2X1_RVT

XU515 n56 n606 n605 n56_b n606_b n605_b vp vn OR2X1_RVT

XU514 n604 n605 n603 n604_b n605_b n603_b vp vn AND2X1_RVT

XU513 n514 n601 n602 n603 n600 n514_b n601_b n602_b n603_b n600_b vp vn AND4X1_RVT

XU512 n600 n17 n599 n600_b n17_b n599_b vp vn OR2X1_RVT

XU511 n596 n597 n598 n599 n543 n596_b n597_b n598_b n599_b n543_b vp vn AND4X1_RVT

XU510 n795 n71 n592 n795_b n71_b n592_b vp vn OR2X1_RVT

XU509 n44 n85 n593 n44_b n85_b n593_b vp vn OR2X1_RVT

XU508 n470 n75 n594 n470_b n75_b n594_b vp vn OR2X1_RVT

XU507 in[1] n247 n595 in[1]_b n247_b n595_b vp vn OR2X1_RVT

XU506 n592 n593 n594 n595 n591 n592_b n593_b n594_b n595_b n591_b vp vn AND4X1_RVT

XU505 n591 n34 n576 n591_b n34_b n576_b vp vn OR2X1_RVT

XU504 in[7] n165 n353 in[7]_b n165_b n353_b vp vn OR2X1_RVT

XU503 n78 n353 n577 n78_b n353_b n577_b vp vn OR2X1_RVT

XU502 n165 n145 n164 n165_b n145_b n164_b vp vn OR2X1_RVT

XU501 n11 n116 n587 n11_b n116_b n587_b vp vn OR2X1_RVT

XU500 n373 n446 n590 n373_b n446_b n590_b vp vn OR2X1_RVT

XU499 in[4] in[2] n484 in[4]_b in[2]_b n484_b vp vn OR2X1_RVT

XU498 n23 n484 n182 n23_b n484_b n182_b vp vn OR2X1_RVT

XU497 n590 n182 n588 n590_b n182_b n588_b vp vn AND2X1_RVT

XU496 in[3] n148 n589 in[3]_b n148_b n589_b vp vn OR2X1_RVT

XU495 n164 n587 n588 n589 n586 n164_b n587_b n588_b n589_b n586_b vp vn AND4X1_RVT

XU494 n586 n41 n578 n586_b n41_b n578_b vp vn OR2X1_RVT

XU493 in[3] n43 n70 in[3]_b n43_b n70_b vp vn OR2X1_RVT

XU492 n70 n247 n580 n70_b n247_b n580_b vp vn OR2X1_RVT

XU491 n19 n29 n267 n19_b n29_b n267_b vp vn OR2X1_RVT

XU490 in[1] n267 n581 in[1]_b n267_b n581_b vp vn OR2X1_RVT

XU489 n32 n88 n585 n32_b n88_b n585_b vp vn AND2X1_RVT

XU488 n585 n213 n582 n585_b n213_b n582_b vp vn OR2X1_RVT

XU487 n78 n38 n584 n78_b n38_b n584_b vp vn AND2X1_RVT

XU486 n584 n86 n583 n584_b n86_b n583_b vp vn OR2X1_RVT

XU485 n580 n581 n582 n583 n579 n580_b n581_b n582_b n583_b n579_b vp vn AND4X1_RVT

XU484 n576 n577 n578 n579 n544 n576_b n577_b n578_b n579_b n544_b vp vn AND4X1_RVT

XU483 in[3] n79 n574 in[3]_b n79_b n574_b vp vn OR2X1_RVT

XU482 n114 n354 n575 n114_b n354_b n575_b vp vn OR2X1_RVT

XU481 n574 n575 n573 n574_b n575_b n573_b vp vn AND2X1_RVT

XU480 n573 n42 n569 n573_b n42_b n569_b vp vn OR2X1_RVT

XU479 n37 n415 n479 n37_b n415_b n479_b vp vn OR2X1_RVT

XU478 n19 n82 n572 n19_b n82_b n572_b vp vn OR2X1_RVT

XU477 n479 n572 n571 n479_b n572_b n571_b vp vn AND2X1_RVT

XU476 n571 n58 n570 n571_b n58_b n570_b vp vn OR2X1_RVT

XU475 n569 n570 n555 n569_b n570_b n555_b vp vn AND2X1_RVT

XU474 n568 n148 n567 n568_b n148_b n567_b vp vn AND2X1_RVT

XU473 n567 n39 n556 n567_b n39_b n556_b vp vn OR2X1_RVT

XU472 n145 n165 n565 n145_b n165_b n565_b vp vn AND2X1_RVT

XU471 n565 n566 n562 n565_b n566_b n562_b vp vn OR2X1_RVT

XU470 n11 n125 n564 n11_b n125_b n564_b vp vn OR2X1_RVT

XU469 n426 n564 n563 n426_b n564_b n563_b vp vn OR2X1_RVT

XU468 n562 n563 n557 n562_b n563_b n557_b vp vn AND2X1_RVT

XU467 n29 n38 n560 n29_b n38_b n560_b vp vn OR2X1_RVT

XU466 n58 n111 n285 n58_b n111_b n285_b vp vn AND2X1_RVT

XU465 n285 n56 n561 n285_b n56_b n561_b vp vn OR2X1_RVT

XU464 n560 n561 n559 n560_b n561_b n559_b vp vn AND2X1_RVT

XU463 n559 n184 n558 n559_b n184_b n558_b vp vn OR2X1_RVT

XU462 n555 n556 n557 n558 n545 n555_b n556_b n557_b n558_b n545_b vp vn AND4X1_RVT

XU461 n37 n554 n179 n37_b n554_b n179_b vp vn OR2X1_RVT

XU460 n70 n272 n55 n70_b n272_b n55_b vp vn OR2X1_RVT
