* Nettran: AMD.64 Release B-2008.09.SP5.HF2.26004 2012/07/19
* Created:  6/23/2016  12:28
* Options: -verilog netlist.v -outName netlist.sp -verilog-b1 VDD -verilog-b0 GND -outType spice 

.GLOBAL VDD GND 

.SUBCKT Rename clk reset stall_i flagRecoverEX_i ctrlVerified_i ctrlVerifiedSMTid_i[1] 
+ ctrlVerifiedSMTid_i[0] decodeReady_i decodedPacket0_i[125] decodedPacket0_i[124] 
+ decodedPacket0_i[123] decodedPacket0_i[122] decodedPacket0_i[121] decodedPacket0_i[120] 
+ decodedPacket0_i[119] decodedPacket0_i[118] decodedPacket0_i[117] decodedPacket0_i[116] 
+ decodedPacket0_i[115] decodedPacket0_i[114] decodedPacket0_i[113] decodedPacket0_i[112] 
+ decodedPacket0_i[111] decodedPacket0_i[110] decodedPacket0_i[109] decodedPacket0_i[108] 
+ decodedPacket0_i[107] decodedPacket0_i[106] decodedPacket0_i[105] decodedPacket0_i[104] 
+ decodedPacket0_i[103] decodedPacket0_i[102] decodedPacket0_i[101] decodedPacket0_i[100] 
+ decodedPacket0_i[99] decodedPacket0_i[98] decodedPacket0_i[97] decodedPacket0_i[96] 
+ decodedPacket0_i[95] decodedPacket0_i[94] decodedPacket0_i[93] decodedPacket0_i[92] 
+ decodedPacket0_i[91] decodedPacket0_i[90] decodedPacket0_i[89] decodedPacket0_i[88] 
+ decodedPacket0_i[87] decodedPacket0_i[86] decodedPacket0_i[85] decodedPacket0_i[84] 
+ decodedPacket0_i[83] decodedPacket0_i[82] decodedPacket0_i[81] decodedPacket0_i[80] 
+ decodedPacket0_i[79] decodedPacket0_i[78] decodedPacket0_i[77] decodedPacket0_i[76] 
+ decodedPacket0_i[75] decodedPacket0_i[74] decodedPacket0_i[73] decodedPacket0_i[72] 
+ decodedPacket0_i[71] decodedPacket0_i[70] decodedPacket0_i[69] decodedPacket0_i[68] 
+ decodedPacket0_i[67] decodedPacket0_i[66] decodedPacket0_i[65] decodedPacket0_i[64] 
+ decodedPacket0_i[63] decodedPacket0_i[62] decodedPacket0_i[61] decodedPacket0_i[60] 
+ decodedPacket0_i[59] decodedPacket0_i[58] decodedPacket0_i[57] decodedPacket0_i[56] 
+ decodedPacket0_i[55] decodedPacket0_i[54] decodedPacket0_i[53] decodedPacket0_i[52] 
+ decodedPacket0_i[51] decodedPacket0_i[50] decodedPacket0_i[49] decodedPacket0_i[48] 
+ decodedPacket0_i[47] decodedPacket0_i[46] decodedPacket0_i[45] decodedPacket0_i[44] 
+ decodedPacket0_i[43] decodedPacket0_i[42] decodedPacket0_i[41] decodedPacket0_i[40] 
+ decodedPacket0_i[39] decodedPacket0_i[38] decodedPacket0_i[37] decodedPacket0_i[36] 
+ decodedPacket0_i[35] decodedPacket0_i[34] decodedPacket0_i[33] decodedPacket0_i[32] 
+ decodedPacket0_i[31] decodedPacket0_i[30] decodedPacket0_i[29] decodedPacket0_i[28] 
+ decodedPacket0_i[27] decodedPacket0_i[26] decodedPacket0_i[25] decodedPacket0_i[24] 
+ decodedPacket0_i[23] decodedPacket0_i[22] decodedPacket0_i[21] decodedPacket0_i[20] 
+ decodedPacket0_i[19] decodedPacket0_i[18] decodedPacket0_i[17] decodedPacket0_i[16] 
+ decodedPacket0_i[15] decodedPacket0_i[14] decodedPacket0_i[13] decodedPacket0_i[12] 
+ decodedPacket0_i[11] decodedPacket0_i[10] decodedPacket0_i[9] decodedPacket0_i[8] 
+ decodedPacket0_i[7] decodedPacket0_i[6] decodedPacket0_i[5] decodedPacket0_i[4] 
+ decodedPacket0_i[3] decodedPacket0_i[2] decodedPacket0_i[1] decodedPacket0_i[0] 
+ decodedPacket1_i[125] decodedPacket1_i[124] decodedPacket1_i[123] decodedPacket1_i[122] 
+ decodedPacket1_i[121] decodedPacket1_i[120] decodedPacket1_i[119] decodedPacket1_i[118] 
+ decodedPacket1_i[117] decodedPacket1_i[116] decodedPacket1_i[115] decodedPacket1_i[114] 
+ decodedPacket1_i[113] decodedPacket1_i[112] decodedPacket1_i[111] decodedPacket1_i[110] 
+ decodedPacket1_i[109] decodedPacket1_i[108] decodedPacket1_i[107] decodedPacket1_i[106] 
+ decodedPacket1_i[105] decodedPacket1_i[104] decodedPacket1_i[103] decodedPacket1_i[102] 
+ decodedPacket1_i[101] decodedPacket1_i[100] decodedPacket1_i[99] decodedPacket1_i[98] 
+ decodedPacket1_i[97] decodedPacket1_i[96] decodedPacket1_i[95] decodedPacket1_i[94] 
+ decodedPacket1_i[93] decodedPacket1_i[92] decodedPacket1_i[91] decodedPacket1_i[90] 
+ decodedPacket1_i[89] decodedPacket1_i[88] decodedPacket1_i[87] decodedPacket1_i[86] 
+ decodedPacket1_i[85] decodedPacket1_i[84] decodedPacket1_i[83] decodedPacket1_i[82] 
+ decodedPacket1_i[81] decodedPacket1_i[80] decodedPacket1_i[79] decodedPacket1_i[78] 
+ decodedPacket1_i[77] decodedPacket1_i[76] decodedPacket1_i[75] decodedPacket1_i[74] 
+ decodedPacket1_i[73] decodedPacket1_i[72] decodedPacket1_i[71] decodedPacket1_i[70] 
+ decodedPacket1_i[69] decodedPacket1_i[68] decodedPacket1_i[67] decodedPacket1_i[66] 
+ decodedPacket1_i[65] decodedPacket1_i[64] decodedPacket1_i[63] decodedPacket1_i[62] 
+ decodedPacket1_i[61] decodedPacket1_i[60] decodedPacket1_i[59] decodedPacket1_i[58] 
+ decodedPacket1_i[57] decodedPacket1_i[56] decodedPacket1_i[55] decodedPacket1_i[54] 
+ decodedPacket1_i[53] decodedPacket1_i[52] decodedPacket1_i[51] decodedPacket1_i[50] 
+ decodedPacket1_i[49] decodedPacket1_i[48] decodedPacket1_i[47] decodedPacket1_i[46] 
+ decodedPacket1_i[45] decodedPacket1_i[44] decodedPacket1_i[43] decodedPacket1_i[42] 
+ decodedPacket1_i[41] decodedPacket1_i[40] decodedPacket1_i[39] decodedPacket1_i[38] 
+ decodedPacket1_i[37] decodedPacket1_i[36] decodedPacket1_i[35] decodedPacket1_i[34] 
+ decodedPacket1_i[33] decodedPacket1_i[32] decodedPacket1_i[31] decodedPacket1_i[30] 
+ decodedPacket1_i[29] decodedPacket1_i[28] decodedPacket1_i[27] decodedPacket1_i[26] 
+ decodedPacket1_i[25] decodedPacket1_i[24] decodedPacket1_i[23] decodedPacket1_i[22] 
+ decodedPacket1_i[21] decodedPacket1_i[20] decodedPacket1_i[19] decodedPacket1_i[18] 
+ decodedPacket1_i[17] decodedPacket1_i[16] decodedPacket1_i[15] decodedPacket1_i[14] 
+ decodedPacket1_i[13] decodedPacket1_i[12] decodedPacket1_i[11] decodedPacket1_i[10] 
+ decodedPacket1_i[9] decodedPacket1_i[8] decodedPacket1_i[7] decodedPacket1_i[6] 
+ decodedPacket1_i[5] decodedPacket1_i[4] decodedPacket1_i[3] decodedPacket1_i[2] 
+ decodedPacket1_i[1] decodedPacket1_i[0] decodedPacket2_i[125] decodedPacket2_i[124] 
+ decodedPacket2_i[123] decodedPacket2_i[122] decodedPacket2_i[121] decodedPacket2_i[120] 
+ decodedPacket2_i[119] decodedPacket2_i[118] decodedPacket2_i[117] decodedPacket2_i[116] 
+ decodedPacket2_i[115] decodedPacket2_i[114] decodedPacket2_i[113] decodedPacket2_i[112] 
+ decodedPacket2_i[111] decodedPacket2_i[110] decodedPacket2_i[109] decodedPacket2_i[108] 
+ decodedPacket2_i[107] decodedPacket2_i[106] decodedPacket2_i[105] decodedPacket2_i[104] 
+ decodedPacket2_i[103] decodedPacket2_i[102] decodedPacket2_i[101] decodedPacket2_i[100] 
+ decodedPacket2_i[99] decodedPacket2_i[98] decodedPacket2_i[97] decodedPacket2_i[96] 
+ decodedPacket2_i[95] decodedPacket2_i[94] decodedPacket2_i[93] decodedPacket2_i[92] 
+ decodedPacket2_i[91] decodedPacket2_i[90] decodedPacket2_i[89] decodedPacket2_i[88] 
+ decodedPacket2_i[87] decodedPacket2_i[86] decodedPacket2_i[85] decodedPacket2_i[84] 
+ decodedPacket2_i[83] decodedPacket2_i[82] decodedPacket2_i[81] decodedPacket2_i[80] 
+ decodedPacket2_i[79] decodedPacket2_i[78] decodedPacket2_i[77] decodedPacket2_i[76] 
+ decodedPacket2_i[75] decodedPacket2_i[74] decodedPacket2_i[73] decodedPacket2_i[72] 
+ decodedPacket2_i[71] decodedPacket2_i[70] decodedPacket2_i[69] decodedPacket2_i[68] 
+ decodedPacket2_i[67] decodedPacket2_i[66] decodedPacket2_i[65] decodedPacket2_i[64] 
+ decodedPacket2_i[63] decodedPacket2_i[62] decodedPacket2_i[61] decodedPacket2_i[60] 
+ decodedPacket2_i[59] decodedPacket2_i[58] decodedPacket2_i[57] decodedPacket2_i[56] 
+ decodedPacket2_i[55] decodedPacket2_i[54] decodedPacket2_i[53] decodedPacket2_i[52] 
+ decodedPacket2_i[51] decodedPacket2_i[50] decodedPacket2_i[49] decodedPacket2_i[48] 
+ decodedPacket2_i[47] decodedPacket2_i[46] decodedPacket2_i[45] decodedPacket2_i[44] 
+ decodedPacket2_i[43] decodedPacket2_i[42] decodedPacket2_i[41] decodedPacket2_i[40] 
+ decodedPacket2_i[39] decodedPacket2_i[38] decodedPacket2_i[37] decodedPacket2_i[36] 
+ decodedPacket2_i[35] decodedPacket2_i[34] decodedPacket2_i[33] decodedPacket2_i[32] 
+ decodedPacket2_i[31] decodedPacket2_i[30] decodedPacket2_i[29] decodedPacket2_i[28] 
+ decodedPacket2_i[27] decodedPacket2_i[26] decodedPacket2_i[25] decodedPacket2_i[24] 
+ decodedPacket2_i[23] decodedPacket2_i[22] decodedPacket2_i[21] decodedPacket2_i[20] 
+ decodedPacket2_i[19] decodedPacket2_i[18] decodedPacket2_i[17] decodedPacket2_i[16] 
+ decodedPacket2_i[15] decodedPacket2_i[14] decodedPacket2_i[13] decodedPacket2_i[12] 
+ decodedPacket2_i[11] decodedPacket2_i[10] decodedPacket2_i[9] decodedPacket2_i[8] 
+ decodedPacket2_i[7] decodedPacket2_i[6] decodedPacket2_i[5] decodedPacket2_i[4] 
+ decodedPacket2_i[3] decodedPacket2_i[2] decodedPacket2_i[1] decodedPacket2_i[0] 
+ decodedPacket3_i[125] decodedPacket3_i[124] decodedPacket3_i[123] decodedPacket3_i[122] 
+ decodedPacket3_i[121] decodedPacket3_i[120] decodedPacket3_i[119] decodedPacket3_i[118] 
+ decodedPacket3_i[117] decodedPacket3_i[116] decodedPacket3_i[115] decodedPacket3_i[114] 
+ decodedPacket3_i[113] decodedPacket3_i[112] decodedPacket3_i[111] decodedPacket3_i[110] 
+ decodedPacket3_i[109] decodedPacket3_i[108] decodedPacket3_i[107] decodedPacket3_i[106] 
+ decodedPacket3_i[105] decodedPacket3_i[104] decodedPacket3_i[103] decodedPacket3_i[102] 
+ decodedPacket3_i[101] decodedPacket3_i[100] decodedPacket3_i[99] decodedPacket3_i[98] 
+ decodedPacket3_i[97] decodedPacket3_i[96] decodedPacket3_i[95] decodedPacket3_i[94] 
+ decodedPacket3_i[93] decodedPacket3_i[92] decodedPacket3_i[91] decodedPacket3_i[90] 
+ decodedPacket3_i[89] decodedPacket3_i[88] decodedPacket3_i[87] decodedPacket3_i[86] 
+ decodedPacket3_i[85] decodedPacket3_i[84] decodedPacket3_i[83] decodedPacket3_i[82] 
+ decodedPacket3_i[81] decodedPacket3_i[80] decodedPacket3_i[79] decodedPacket3_i[78] 
+ decodedPacket3_i[77] decodedPacket3_i[76] decodedPacket3_i[75] decodedPacket3_i[74] 
+ decodedPacket3_i[73] decodedPacket3_i[72] decodedPacket3_i[71] decodedPacket3_i[70] 
+ decodedPacket3_i[69] decodedPacket3_i[68] decodedPacket3_i[67] decodedPacket3_i[66] 
+ decodedPacket3_i[65] decodedPacket3_i[64] decodedPacket3_i[63] decodedPacket3_i[62] 
+ decodedPacket3_i[61] decodedPacket3_i[60] decodedPacket3_i[59] decodedPacket3_i[58] 
+ decodedPacket3_i[57] decodedPacket3_i[56] decodedPacket3_i[55] decodedPacket3_i[54] 
+ decodedPacket3_i[53] decodedPacket3_i[52] decodedPacket3_i[51] decodedPacket3_i[50] 
+ decodedPacket3_i[49] decodedPacket3_i[48] decodedPacket3_i[47] decodedPacket3_i[46] 
+ decodedPacket3_i[45] decodedPacket3_i[44] decodedPacket3_i[43] decodedPacket3_i[42] 
+ decodedPacket3_i[41] decodedPacket3_i[40] decodedPacket3_i[39] decodedPacket3_i[38] 
+ decodedPacket3_i[37] decodedPacket3_i[36] decodedPacket3_i[35] decodedPacket3_i[34] 
+ decodedPacket3_i[33] decodedPacket3_i[32] decodedPacket3_i[31] decodedPacket3_i[30] 
+ decodedPacket3_i[29] decodedPacket3_i[28] decodedPacket3_i[27] decodedPacket3_i[26] 
+ decodedPacket3_i[25] decodedPacket3_i[24] decodedPacket3_i[23] decodedPacket3_i[22] 
+ decodedPacket3_i[21] decodedPacket3_i[20] decodedPacket3_i[19] decodedPacket3_i[18] 
+ decodedPacket3_i[17] decodedPacket3_i[16] decodedPacket3_i[15] decodedPacket3_i[14] 
+ decodedPacket3_i[13] decodedPacket3_i[12] decodedPacket3_i[11] decodedPacket3_i[10] 
+ decodedPacket3_i[9] decodedPacket3_i[8] decodedPacket3_i[7] decodedPacket3_i[6] 
+ decodedPacket3_i[5] decodedPacket3_i[4] decodedPacket3_i[3] decodedPacket3_i[2] 
+ decodedPacket3_i[1] decodedPacket3_i[0] branchCount_i[2] branchCount_i[1] branchCount_i[0] 
+ commitValid0_i commitReg0_i[6] commitReg0_i[5] commitReg0_i[4] commitReg0_i[3] 
+ commitReg0_i[2] commitReg0_i[1] commitReg0_i[0] commitValid1_i commitReg1_i[6] 
+ commitReg1_i[5] commitReg1_i[4] commitReg1_i[3] commitReg1_i[2] commitReg1_i[1] 
+ commitReg1_i[0] commitValid2_i commitReg2_i[6] commitReg2_i[5] commitReg2_i[4] 
+ commitReg2_i[3] commitReg2_i[2] commitReg2_i[1] commitReg2_i[0] commitValid3_i 
+ commitReg3_i[6] commitReg3_i[5] commitReg3_i[4] commitReg3_i[3] commitReg3_i[2] 
+ commitReg3_i[1] commitReg3_i[0] recoverFlag_i recoverDest0_i[5] recoverDest0_i[4] 
+ recoverDest0_i[3] recoverDest0_i[2] recoverDest0_i[1] recoverDest0_i[0] recoverDest1_i[5] 
+ recoverDest1_i[4] recoverDest1_i[3] recoverDest1_i[2] recoverDest1_i[1] recoverDest1_i[0] 
+ recoverDest2_i[5] recoverDest2_i[4] recoverDest2_i[3] recoverDest2_i[2] recoverDest2_i[1] 
+ recoverDest2_i[0] recoverDest3_i[5] recoverDest3_i[4] recoverDest3_i[3] recoverDest3_i[2] 
+ recoverDest3_i[1] recoverDest3_i[0] recoverMap0_i[6] recoverMap0_i[5] recoverMap0_i[4] 
+ recoverMap0_i[3] recoverMap0_i[2] recoverMap0_i[1] recoverMap0_i[0] recoverMap1_i[6] 
+ recoverMap1_i[5] recoverMap1_i[4] recoverMap1_i[3] recoverMap1_i[2] recoverMap1_i[1] 
+ recoverMap1_i[0] recoverMap2_i[6] recoverMap2_i[5] recoverMap2_i[4] recoverMap2_i[3] 
+ recoverMap2_i[2] recoverMap2_i[1] recoverMap2_i[0] recoverMap3_i[6] recoverMap3_i[5] 
+ recoverMap3_i[4] recoverMap3_i[3] recoverMap3_i[2] recoverMap3_i[1] recoverMap3_i[0] 
+ renamedPacket0_o[144] renamedPacket0_o[143] renamedPacket0_o[142] renamedPacket0_o[141] 
+ renamedPacket0_o[140] renamedPacket0_o[139] renamedPacket0_o[138] renamedPacket0_o[137] 
+ renamedPacket0_o[136] renamedPacket0_o[135] renamedPacket0_o[134] renamedPacket0_o[133] 
+ renamedPacket0_o[132] renamedPacket0_o[131] renamedPacket0_o[130] renamedPacket0_o[129] 
+ renamedPacket0_o[128] renamedPacket0_o[127] renamedPacket0_o[126] renamedPacket0_o[125] 
+ renamedPacket0_o[124] renamedPacket0_o[123] renamedPacket0_o[122] renamedPacket0_o[121] 
+ renamedPacket0_o[120] renamedPacket0_o[119] renamedPacket0_o[118] renamedPacket0_o[117] 
+ renamedPacket0_o[116] renamedPacket0_o[115] renamedPacket0_o[114] renamedPacket0_o[113] 
+ renamedPacket0_o[112] renamedPacket0_o[111] renamedPacket0_o[110] renamedPacket0_o[109] 
+ renamedPacket0_o[108] renamedPacket0_o[107] renamedPacket0_o[106] renamedPacket0_o[105] 
+ renamedPacket0_o[104] renamedPacket0_o[103] renamedPacket0_o[102] renamedPacket0_o[101] 
+ renamedPacket0_o[100] renamedPacket0_o[99] renamedPacket0_o[98] renamedPacket0_o[97] 
+ renamedPacket0_o[96] renamedPacket0_o[95] renamedPacket0_o[94] renamedPacket0_o[93] 
+ renamedPacket0_o[92] renamedPacket0_o[91] renamedPacket0_o[90] renamedPacket0_o[89] 
+ renamedPacket0_o[88] renamedPacket0_o[87] renamedPacket0_o[86] renamedPacket0_o[85] 
+ renamedPacket0_o[84] renamedPacket0_o[83] renamedPacket0_o[82] renamedPacket0_o[81] 
+ renamedPacket0_o[80] renamedPacket0_o[79] renamedPacket0_o[78] renamedPacket0_o[77] 
+ renamedPacket0_o[76] renamedPacket0_o[75] renamedPacket0_o[74] renamedPacket0_o[73] 
+ renamedPacket0_o[72] renamedPacket0_o[71] renamedPacket0_o[70] renamedPacket0_o[69] 
+ renamedPacket0_o[68] renamedPacket0_o[67] renamedPacket0_o[66] renamedPacket0_o[65] 
+ renamedPacket0_o[64] renamedPacket0_o[63] renamedPacket0_o[62] renamedPacket0_o[61] 
+ renamedPacket0_o[60] renamedPacket0_o[59] renamedPacket0_o[58] renamedPacket0_o[57] 
+ renamedPacket0_o[56] renamedPacket0_o[55] renamedPacket0_o[54] renamedPacket0_o[53] 
+ renamedPacket0_o[52] renamedPacket0_o[51] renamedPacket0_o[50] renamedPacket0_o[49] 
+ renamedPacket0_o[48] renamedPacket0_o[47] renamedPacket0_o[46] renamedPacket0_o[45] 
+ renamedPacket0_o[44] renamedPacket0_o[43] renamedPacket0_o[42] renamedPacket0_o[41] 
+ renamedPacket0_o[40] renamedPacket0_o[39] renamedPacket0_o[38] renamedPacket0_o[37] 
+ renamedPacket0_o[36] renamedPacket0_o[35] renamedPacket0_o[34] renamedPacket0_o[33] 
+ renamedPacket0_o[32] renamedPacket0_o[31] renamedPacket0_o[30] renamedPacket0_o[29] 
+ renamedPacket0_o[28] renamedPacket0_o[27] renamedPacket0_o[26] renamedPacket0_o[25] 
+ renamedPacket0_o[24] renamedPacket0_o[23] renamedPacket0_o[22] renamedPacket0_o[21] 
+ renamedPacket0_o[20] renamedPacket0_o[19] renamedPacket0_o[18] renamedPacket0_o[17] 
+ renamedPacket0_o[16] renamedPacket0_o[15] renamedPacket0_o[14] renamedPacket0_o[13] 
+ renamedPacket0_o[12] renamedPacket0_o[11] renamedPacket0_o[10] renamedPacket0_o[9] 
+ renamedPacket0_o[8] renamedPacket0_o[7] renamedPacket0_o[6] renamedPacket0_o[5] 
+ renamedPacket0_o[4] renamedPacket0_o[3] renamedPacket0_o[2] renamedPacket0_o[1] 
+ renamedPacket0_o[0] renamedPacket1_o[144] renamedPacket1_o[143] renamedPacket1_o[142] 
+ renamedPacket1_o[141] renamedPacket1_o[140] renamedPacket1_o[139] renamedPacket1_o[138] 
+ renamedPacket1_o[137] renamedPacket1_o[136] renamedPacket1_o[135] renamedPacket1_o[134] 
+ renamedPacket1_o[133] renamedPacket1_o[132] renamedPacket1_o[131] renamedPacket1_o[130] 
+ renamedPacket1_o[129] renamedPacket1_o[128] renamedPacket1_o[127] renamedPacket1_o[126] 
+ renamedPacket1_o[125] renamedPacket1_o[124] renamedPacket1_o[123] renamedPacket1_o[122] 
+ renamedPacket1_o[121] renamedPacket1_o[120] renamedPacket1_o[119] renamedPacket1_o[118] 
+ renamedPacket1_o[117] renamedPacket1_o[116] renamedPacket1_o[115] renamedPacket1_o[114] 
+ renamedPacket1_o[113] renamedPacket1_o[112] renamedPacket1_o[111] renamedPacket1_o[110] 
+ renamedPacket1_o[109] renamedPacket1_o[108] renamedPacket1_o[107] renamedPacket1_o[106] 
+ renamedPacket1_o[105] renamedPacket1_o[104] renamedPacket1_o[103] renamedPacket1_o[102] 
+ renamedPacket1_o[101] renamedPacket1_o[100] renamedPacket1_o[99] renamedPacket1_o[98] 
+ renamedPacket1_o[97] renamedPacket1_o[96] renamedPacket1_o[95] renamedPacket1_o[94] 
+ renamedPacket1_o[93] renamedPacket1_o[92] renamedPacket1_o[91] renamedPacket1_o[90] 
+ renamedPacket1_o[89] renamedPacket1_o[88] renamedPacket1_o[87] renamedPacket1_o[86] 
+ renamedPacket1_o[85] renamedPacket1_o[84] renamedPacket1_o[83] renamedPacket1_o[82] 
+ renamedPacket1_o[81] renamedPacket1_o[80] renamedPacket1_o[79] renamedPacket1_o[78] 
+ renamedPacket1_o[77] renamedPacket1_o[76] renamedPacket1_o[75] renamedPacket1_o[74] 
+ renamedPacket1_o[73] renamedPacket1_o[72] renamedPacket1_o[71] renamedPacket1_o[70] 
+ renamedPacket1_o[69] renamedPacket1_o[68] renamedPacket1_o[67] renamedPacket1_o[66] 
+ renamedPacket1_o[65] renamedPacket1_o[64] renamedPacket1_o[63] renamedPacket1_o[62] 
+ renamedPacket1_o[61] renamedPacket1_o[60] renamedPacket1_o[59] renamedPacket1_o[58] 
+ renamedPacket1_o[57] renamedPacket1_o[56] renamedPacket1_o[55] renamedPacket1_o[54] 
+ renamedPacket1_o[53] renamedPacket1_o[52] renamedPacket1_o[51] renamedPacket1_o[50] 
+ renamedPacket1_o[49] renamedPacket1_o[48] renamedPacket1_o[47] renamedPacket1_o[46] 
+ renamedPacket1_o[45] renamedPacket1_o[44] renamedPacket1_o[43] renamedPacket1_o[42] 
+ renamedPacket1_o[41] renamedPacket1_o[40] renamedPacket1_o[39] renamedPacket1_o[38] 
+ renamedPacket1_o[37] renamedPacket1_o[36] renamedPacket1_o[35] renamedPacket1_o[34] 
+ renamedPacket1_o[33] renamedPacket1_o[32] renamedPacket1_o[31] renamedPacket1_o[30] 
+ renamedPacket1_o[29] renamedPacket1_o[28] renamedPacket1_o[27] renamedPacket1_o[26] 
+ renamedPacket1_o[25] renamedPacket1_o[24] renamedPacket1_o[23] renamedPacket1_o[22] 
+ renamedPacket1_o[21] renamedPacket1_o[20] renamedPacket1_o[19] renamedPacket1_o[18] 
+ renamedPacket1_o[17] renamedPacket1_o[16] renamedPacket1_o[15] renamedPacket1_o[14] 
+ renamedPacket1_o[13] renamedPacket1_o[12] renamedPacket1_o[11] renamedPacket1_o[10] 
+ renamedPacket1_o[9] renamedPacket1_o[8] renamedPacket1_o[7] renamedPacket1_o[6] 
+ renamedPacket1_o[5] renamedPacket1_o[4] renamedPacket1_o[3] renamedPacket1_o[2] 
+ renamedPacket1_o[1] renamedPacket1_o[0] renamedPacket2_o[144] renamedPacket2_o[143] 
+ renamedPacket2_o[142] renamedPacket2_o[141] renamedPacket2_o[140] renamedPacket2_o[139] 
+ renamedPacket2_o[138] renamedPacket2_o[137] renamedPacket2_o[136] renamedPacket2_o[135] 
+ renamedPacket2_o[134] renamedPacket2_o[133] renamedPacket2_o[132] renamedPacket2_o[131] 
+ renamedPacket2_o[130] renamedPacket2_o[129] renamedPacket2_o[128] renamedPacket2_o[127] 
+ renamedPacket2_o[126] renamedPacket2_o[125] renamedPacket2_o[124] renamedPacket2_o[123] 
+ renamedPacket2_o[122] renamedPacket2_o[121] renamedPacket2_o[120] renamedPacket2_o[119] 
+ renamedPacket2_o[118] renamedPacket2_o[117] renamedPacket2_o[116] renamedPacket2_o[115] 
+ renamedPacket2_o[114] renamedPacket2_o[113] renamedPacket2_o[112] renamedPacket2_o[111] 
+ renamedPacket2_o[110] renamedPacket2_o[109] renamedPacket2_o[108] renamedPacket2_o[107] 
+ renamedPacket2_o[106] renamedPacket2_o[105] renamedPacket2_o[104] renamedPacket2_o[103] 
+ renamedPacket2_o[102] renamedPacket2_o[101] renamedPacket2_o[100] renamedPacket2_o[99] 
+ renamedPacket2_o[98] renamedPacket2_o[97] renamedPacket2_o[96] renamedPacket2_o[95] 
+ renamedPacket2_o[94] renamedPacket2_o[93] renamedPacket2_o[92] renamedPacket2_o[91] 
+ renamedPacket2_o[90] renamedPacket2_o[89] renamedPacket2_o[88] renamedPacket2_o[87] 
+ renamedPacket2_o[86] renamedPacket2_o[85] renamedPacket2_o[84] renamedPacket2_o[83] 
+ renamedPacket2_o[82] renamedPacket2_o[81] renamedPacket2_o[80] renamedPacket2_o[79] 
+ renamedPacket2_o[78] renamedPacket2_o[77] renamedPacket2_o[76] renamedPacket2_o[75] 
+ renamedPacket2_o[74] renamedPacket2_o[73] renamedPacket2_o[72] renamedPacket2_o[71] 
+ renamedPacket2_o[70] renamedPacket2_o[69] renamedPacket2_o[68] renamedPacket2_o[67] 
+ renamedPacket2_o[66] renamedPacket2_o[65] renamedPacket2_o[64] renamedPacket2_o[63] 
+ renamedPacket2_o[62] renamedPacket2_o[61] renamedPacket2_o[60] renamedPacket2_o[59] 
+ renamedPacket2_o[58] renamedPacket2_o[57] renamedPacket2_o[56] renamedPacket2_o[55] 
+ renamedPacket2_o[54] renamedPacket2_o[53] renamedPacket2_o[52] renamedPacket2_o[51] 
+ renamedPacket2_o[50] renamedPacket2_o[49] renamedPacket2_o[48] renamedPacket2_o[47] 
+ renamedPacket2_o[46] renamedPacket2_o[45] renamedPacket2_o[44] renamedPacket2_o[43] 
+ renamedPacket2_o[42] renamedPacket2_o[41] renamedPacket2_o[40] renamedPacket2_o[39] 
+ renamedPacket2_o[38] renamedPacket2_o[37] renamedPacket2_o[36] renamedPacket2_o[35] 
+ renamedPacket2_o[34] renamedPacket2_o[33] renamedPacket2_o[32] renamedPacket2_o[31] 
+ renamedPacket2_o[30] renamedPacket2_o[29] renamedPacket2_o[28] renamedPacket2_o[27] 
+ renamedPacket2_o[26] renamedPacket2_o[25] renamedPacket2_o[24] renamedPacket2_o[23] 
+ renamedPacket2_o[22] renamedPacket2_o[21] renamedPacket2_o[20] renamedPacket2_o[19] 
+ renamedPacket2_o[18] renamedPacket2_o[17] renamedPacket2_o[16] renamedPacket2_o[15] 
+ renamedPacket2_o[14] renamedPacket2_o[13] renamedPacket2_o[12] renamedPacket2_o[11] 
+ renamedPacket2_o[10] renamedPacket2_o[9] renamedPacket2_o[8] renamedPacket2_o[7] 
+ renamedPacket2_o[6] renamedPacket2_o[5] renamedPacket2_o[4] renamedPacket2_o[3] 
+ renamedPacket2_o[2] renamedPacket2_o[1] renamedPacket2_o[0] renamedPacket3_o[144] 
+ renamedPacket3_o[143] renamedPacket3_o[142] renamedPacket3_o[141] renamedPacket3_o[140] 
+ renamedPacket3_o[139] renamedPacket3_o[138] renamedPacket3_o[137] renamedPacket3_o[136] 
+ renamedPacket3_o[135] renamedPacket3_o[134] renamedPacket3_o[133] renamedPacket3_o[132] 
+ renamedPacket3_o[131] renamedPacket3_o[130] renamedPacket3_o[129] renamedPacket3_o[128] 
+ renamedPacket3_o[127] renamedPacket3_o[126] renamedPacket3_o[125] renamedPacket3_o[124] 
+ renamedPacket3_o[123] renamedPacket3_o[122] renamedPacket3_o[121] renamedPacket3_o[120] 
+ renamedPacket3_o[119] renamedPacket3_o[118] renamedPacket3_o[117] renamedPacket3_o[116] 
+ renamedPacket3_o[115] renamedPacket3_o[114] renamedPacket3_o[113] renamedPacket3_o[112] 
+ renamedPacket3_o[111] renamedPacket3_o[110] renamedPacket3_o[109] renamedPacket3_o[108] 
+ renamedPacket3_o[107] renamedPacket3_o[106] renamedPacket3_o[105] renamedPacket3_o[104] 
+ renamedPacket3_o[103] renamedPacket3_o[102] renamedPacket3_o[101] renamedPacket3_o[100] 
+ renamedPacket3_o[99] renamedPacket3_o[98] renamedPacket3_o[97] renamedPacket3_o[96] 
+ renamedPacket3_o[95] renamedPacket3_o[94] renamedPacket3_o[93] renamedPacket3_o[92] 
+ renamedPacket3_o[91] renamedPacket3_o[90] renamedPacket3_o[89] renamedPacket3_o[88] 
+ renamedPacket3_o[87] renamedPacket3_o[86] renamedPacket3_o[85] renamedPacket3_o[84] 
+ renamedPacket3_o[83] renamedPacket3_o[82] renamedPacket3_o[81] renamedPacket3_o[80] 
+ renamedPacket3_o[79] renamedPacket3_o[78] renamedPacket3_o[77] renamedPacket3_o[76] 
+ renamedPacket3_o[75] renamedPacket3_o[74] renamedPacket3_o[73] renamedPacket3_o[72] 
+ renamedPacket3_o[71] renamedPacket3_o[70] renamedPacket3_o[69] renamedPacket3_o[68] 
+ renamedPacket3_o[67] renamedPacket3_o[66] renamedPacket3_o[65] renamedPacket3_o[64] 
+ renamedPacket3_o[63] renamedPacket3_o[62] renamedPacket3_o[61] renamedPacket3_o[60] 
+ renamedPacket3_o[59] renamedPacket3_o[58] renamedPacket3_o[57] renamedPacket3_o[56] 
+ renamedPacket3_o[55] renamedPacket3_o[54] renamedPacket3_o[53] renamedPacket3_o[52] 
+ renamedPacket3_o[51] renamedPacket3_o[50] renamedPacket3_o[49] renamedPacket3_o[48] 
+ renamedPacket3_o[47] renamedPacket3_o[46] renamedPacket3_o[45] renamedPacket3_o[44] 
+ renamedPacket3_o[43] renamedPacket3_o[42] renamedPacket3_o[41] renamedPacket3_o[40] 
+ renamedPacket3_o[39] renamedPacket3_o[38] renamedPacket3_o[37] renamedPacket3_o[36] 
+ renamedPacket3_o[35] renamedPacket3_o[34] renamedPacket3_o[33] renamedPacket3_o[32] 
+ renamedPacket3_o[31] renamedPacket3_o[30] renamedPacket3_o[29] renamedPacket3_o[28] 
+ renamedPacket3_o[27] renamedPacket3_o[26] renamedPacket3_o[25] renamedPacket3_o[24] 
+ renamedPacket3_o[23] renamedPacket3_o[22] renamedPacket3_o[21] renamedPacket3_o[20] 
+ renamedPacket3_o[19] renamedPacket3_o[18] renamedPacket3_o[17] renamedPacket3_o[16] 
+ renamedPacket3_o[15] renamedPacket3_o[14] renamedPacket3_o[13] renamedPacket3_o[12] 
+ renamedPacket3_o[11] renamedPacket3_o[10] renamedPacket3_o[9] renamedPacket3_o[8] 
+ renamedPacket3_o[7] renamedPacket3_o[6] renamedPacket3_o[5] renamedPacket3_o[4] 
+ renamedPacket3_o[3] renamedPacket3_o[2] renamedPacket3_o[1] renamedPacket3_o[0] 
+ noFreeSMT_o freeListEmpty_o renameReady_o 
XU1544 n1181 n1187 n1175 n1494 RMT/N88 AND4X1_RVT 
XU1543 n1193 n1199 n1493 n1492 n1494 AND4X1_RVT 
XU1542 n1491 n1490 n1492 OR2X1_RVT 
XU1541 n1489 n1232 n1490 AND2X1_RVT 
XU1540 decodedPacket0_i[92] n1489 n1491 AND2X1_RVT 
XU1539 decodedPacket0_i[91] n1233 n1489 OR2X1_RVT 
XU1538 n1488 n1487 n1493 OR2X1_RVT 
XU1537 decodedPacket1_i[78] n1486 n1487 AND2X1_RVT 
XU1536 n1486 n1200 n1488 AND2X1_RVT 
XU1535 n1233 decodedPacket0_i[91] n1486 NAND2X1_RVT 
XU1534 decodedPacket1_i[79] decodedPacket0_i[93] n1485 XOR2X1_RVT 
XU1533 decodedPacket1_i[80] decodedPacket0_i[94] n1484 XOR2X1_RVT 
XU1532 decodedPacket1_i[83] decodedPacket0_i[97] n1483 XOR2X1_RVT 
XU1531 decodedPacket1_i[81] decodedPacket0_i[95] n1482 XOR2X1_RVT 
XU1530 decodedPacket1_i[82] decodedPacket0_i[96] n1481 XOR2X1_RVT 
XU1529 n1180 n1186 n1173 n1480 RMT/N90 AND4X1_RVT 
XU1528 n1192 n1198 n1479 n1478 n1480 AND4X1_RVT 
XU1527 n1477 n1476 n1478 OR2X1_RVT 
XU1526 n1475 n1230 n1476 AND2X1_RVT 
XU1525 decodedPacket0_i[92] n1475 n1477 AND2X1_RVT 
XU1524 decodedPacket0_i[91] n1231 n1475 OR2X1_RVT 
XU1523 n1474 n1473 n1479 OR2X1_RVT 
XU1522 decodedPacket1_i[85] n1472 n1473 AND2X1_RVT 
XU1521 n1472 n1200 n1474 AND2X1_RVT 
XU1520 n1231 decodedPacket0_i[91] n1472 NAND2X1_RVT 
XU1519 decodedPacket1_i[86] decodedPacket0_i[93] n1471 XOR2X1_RVT 
XU1518 decodedPacket1_i[87] decodedPacket0_i[94] n1470 XOR2X1_RVT 
XU1517 decodedPacket1_i[90] decodedPacket0_i[97] n1469 XOR2X1_RVT 
XU1516 decodedPacket1_i[88] decodedPacket0_i[95] n1468 XOR2X1_RVT 
XU1515 decodedPacket1_i[89] decodedPacket0_i[96] n1467 XOR2X1_RVT 
XU1514 n1179 n1185 n1171 n1466 RMT/N92 AND4X1_RVT 
XU1513 n1191 n1197 n1465 n1464 n1466 AND4X1_RVT 
XU1512 n1463 n1462 n1464 OR2X1_RVT 
XU1511 n1461 n1250 n1462 AND2X1_RVT 
XU1510 decodedPacket0_i[92] n1461 n1463 AND2X1_RVT 
XU1509 decodedPacket0_i[91] n1251 n1461 OR2X1_RVT 
XU1508 n1460 n1459 n1465 OR2X1_RVT 
XU1507 decodedPacket2_i[78] n1458 n1459 AND2X1_RVT 
XU1506 n1458 n1200 n1460 AND2X1_RVT 
XU1505 n1251 decodedPacket0_i[91] n1458 NAND2X1_RVT 
XU1504 decodedPacket2_i[79] decodedPacket0_i[93] n1457 XOR2X1_RVT 
XU1503 decodedPacket2_i[80] decodedPacket0_i[94] n1456 XOR2X1_RVT 
XU1502 decodedPacket2_i[83] decodedPacket0_i[97] n1455 XOR2X1_RVT 
XU1501 decodedPacket2_i[81] decodedPacket0_i[95] n1454 XOR2X1_RVT 
XU1500 decodedPacket2_i[82] decodedPacket0_i[96] n1453 XOR2X1_RVT 
XU1499 n1215 n1219 n1211 n1452 RMT/N94 AND4X1_RVT 
XU1498 n1223 n1227 n1451 n1450 n1452 AND4X1_RVT 
XU1497 n1449 n1448 n1450 OR2X1_RVT 
XU1496 n1447 n1250 n1448 AND2X1_RVT 
XU1495 decodedPacket1_i[92] n1447 n1449 AND2X1_RVT 
XU1494 decodedPacket1_i[91] n1251 n1447 OR2X1_RVT 
XU1493 n1446 n1445 n1451 OR2X1_RVT 
XU1492 decodedPacket2_i[78] n1444 n1445 AND2X1_RVT 
XU1491 n1444 n1228 n1446 AND2X1_RVT 
XU1490 n1251 decodedPacket1_i[91] n1444 NAND2X1_RVT 
XU1489 decodedPacket2_i[79] decodedPacket1_i[93] n1443 XOR2X1_RVT 
XU1488 decodedPacket2_i[80] decodedPacket1_i[94] n1442 XOR2X1_RVT 
XU1487 decodedPacket2_i[83] decodedPacket1_i[97] n1441 XOR2X1_RVT 
XU1486 decodedPacket2_i[81] decodedPacket1_i[95] n1440 XOR2X1_RVT 
XU1485 decodedPacket2_i[82] decodedPacket1_i[96] n1439 XOR2X1_RVT 
XU1484 n1178 n1184 n1169 n1438 RMT/N96 AND4X1_RVT 
XU1483 n1190 n1196 n1437 n1436 n1438 AND4X1_RVT 
XU1482 n1435 n1434 n1436 OR2X1_RVT 
XU1481 n1433 n1248 n1434 AND2X1_RVT 
XU1480 decodedPacket0_i[92] n1433 n1435 AND2X1_RVT 
XU1479 decodedPacket0_i[91] n1249 n1433 OR2X1_RVT 
XU1478 n1432 n1431 n1437 OR2X1_RVT 
XU1477 decodedPacket2_i[85] n1430 n1431 AND2X1_RVT 
XU1476 n1430 n1200 n1432 AND2X1_RVT 
XU1475 n1249 decodedPacket0_i[91] n1430 NAND2X1_RVT 
XU1474 decodedPacket2_i[86] decodedPacket0_i[93] n1429 XOR2X1_RVT 
XU1473 decodedPacket2_i[87] decodedPacket0_i[94] n1428 XOR2X1_RVT 
XU1472 decodedPacket2_i[90] decodedPacket0_i[97] n1427 XOR2X1_RVT 
XU1471 decodedPacket2_i[88] decodedPacket0_i[95] n1426 XOR2X1_RVT 
XU1470 decodedPacket2_i[89] decodedPacket0_i[96] n1425 XOR2X1_RVT 
XU1469 n1214 n1218 n1209 n1424 RMT/N98 AND4X1_RVT 
XU1468 n1222 n1226 n1423 n1422 n1424 AND4X1_RVT 
XU1467 n1421 n1420 n1422 OR2X1_RVT 
XU1466 n1419 n1248 n1420 AND2X1_RVT 
XU1465 decodedPacket1_i[92] n1419 n1421 AND2X1_RVT 
XU1464 decodedPacket1_i[91] n1249 n1419 OR2X1_RVT 
XU1463 n1418 n1417 n1423 OR2X1_RVT 