* Nettran: AMD.64 Release B-2008.09.SP5.HF2.26004 2012/07/19
* Created:  6/21/2016  15:13
* Options: -verilog netlist.v -outName netlist.sp -verilog-b1 VDD -verilog-b0 GND -outType spice 

.GLOBAL VDD GND 

.SUBCKT Fetch1Fetch2 clk btbHit0_i targetAddr0_i[31] targetAddr0_i[30] targetAddr0_i[29] 
+ targetAddr0_i[28] targetAddr0_i[27] targetAddr0_i[26] targetAddr0_i[25] targetAddr0_i[24] 
+ targetAddr0_i[23] targetAddr0_i[22] targetAddr0_i[21] targetAddr0_i[20] targetAddr0_i[19] 
+ targetAddr0_i[18] targetAddr0_i[17] targetAddr0_i[16] targetAddr0_i[15] targetAddr0_i[14] 
+ targetAddr0_i[13] targetAddr0_i[12] targetAddr0_i[11] targetAddr0_i[10] targetAddr0_i[9] 
+ targetAddr0_i[8] targetAddr0_i[7] targetAddr0_i[6] targetAddr0_i[5] targetAddr0_i[4] 
+ targetAddr0_i[3] targetAddr0_i[2] targetAddr0_i[1] targetAddr0_i[0] prediction0_i 
+ btbHit0_o targetAddr0_o[31] targetAddr0_o[30] targetAddr0_o[29] targetAddr0_o[28] 
+ targetAddr0_o[27] targetAddr0_o[26] targetAddr0_o[25] targetAddr0_o[24] targetAddr0_o[23] 
+ targetAddr0_o[22] targetAddr0_o[21] targetAddr0_o[20] targetAddr0_o[19] targetAddr0_o[18] 
+ targetAddr0_o[17] targetAddr0_o[16] targetAddr0_o[15] targetAddr0_o[14] targetAddr0_o[13] 
+ targetAddr0_o[12] targetAddr0_o[11] targetAddr0_o[10] targetAddr0_o[9] targetAddr0_o[8] 
+ targetAddr0_o[7] targetAddr0_o[6] targetAddr0_o[5] targetAddr0_o[4] targetAddr0_o[3] 
+ targetAddr0_o[2] targetAddr0_o[1] targetAddr0_o[0] prediction0_o btbHit1_i targetAddr1_i[31] 
+ targetAddr1_i[30] targetAddr1_i[29] targetAddr1_i[28] targetAddr1_i[27] targetAddr1_i[26] 
+ targetAddr1_i[25] targetAddr1_i[24] targetAddr1_i[23] targetAddr1_i[22] targetAddr1_i[21] 
+ targetAddr1_i[20] targetAddr1_i[19] targetAddr1_i[18] targetAddr1_i[17] targetAddr1_i[16] 
+ targetAddr1_i[15] targetAddr1_i[14] targetAddr1_i[13] targetAddr1_i[12] targetAddr1_i[11] 
+ targetAddr1_i[10] targetAddr1_i[9] targetAddr1_i[8] targetAddr1_i[7] targetAddr1_i[6] 
+ targetAddr1_i[5] targetAddr1_i[4] targetAddr1_i[3] targetAddr1_i[2] targetAddr1_i[1] 
+ targetAddr1_i[0] prediction1_i btbHit1_o targetAddr1_o[31] targetAddr1_o[30] targetAddr1_o[29] 
+ targetAddr1_o[28] targetAddr1_o[27] targetAddr1_o[26] targetAddr1_o[25] targetAddr1_o[24] 
+ targetAddr1_o[23] targetAddr1_o[22] targetAddr1_o[21] targetAddr1_o[20] targetAddr1_o[19] 
+ targetAddr1_o[18] targetAddr1_o[17] targetAddr1_o[16] targetAddr1_o[15] targetAddr1_o[14] 
+ targetAddr1_o[13] targetAddr1_o[12] targetAddr1_o[11] targetAddr1_o[10] targetAddr1_o[9] 
+ targetAddr1_o[8] targetAddr1_o[7] targetAddr1_o[6] targetAddr1_o[5] targetAddr1_o[4] 
+ targetAddr1_o[3] targetAddr1_o[2] targetAddr1_o[1] targetAddr1_o[0] prediction1_o 
+ btbHit2_i targetAddr2_i[31] targetAddr2_i[30] targetAddr2_i[29] targetAddr2_i[28] 
+ targetAddr2_i[27] targetAddr2_i[26] targetAddr2_i[25] targetAddr2_i[24] targetAddr2_i[23] 
+ targetAddr2_i[22] targetAddr2_i[21] targetAddr2_i[20] targetAddr2_i[19] targetAddr2_i[18] 
+ targetAddr2_i[17] targetAddr2_i[16] targetAddr2_i[15] targetAddr2_i[14] targetAddr2_i[13] 
+ targetAddr2_i[12] targetAddr2_i[11] targetAddr2_i[10] targetAddr2_i[9] targetAddr2_i[8] 
+ targetAddr2_i[7] targetAddr2_i[6] targetAddr2_i[5] targetAddr2_i[4] targetAddr2_i[3] 
+ targetAddr2_i[2] targetAddr2_i[1] targetAddr2_i[0] prediction2_i btbHit2_o targetAddr2_o[31] 
+ targetAddr2_o[30] targetAddr2_o[29] targetAddr2_o[28] targetAddr2_o[27] targetAddr2_o[26] 
+ targetAddr2_o[25] targetAddr2_o[24] targetAddr2_o[23] targetAddr2_o[22] targetAddr2_o[21] 
+ targetAddr2_o[20] targetAddr2_o[19] targetAddr2_o[18] targetAddr2_o[17] targetAddr2_o[16] 
+ targetAddr2_o[15] targetAddr2_o[14] targetAddr2_o[13] targetAddr2_o[12] targetAddr2_o[11] 
+ targetAddr2_o[10] targetAddr2_o[9] targetAddr2_o[8] targetAddr2_o[7] targetAddr2_o[6] 
+ targetAddr2_o[5] targetAddr2_o[4] targetAddr2_o[3] targetAddr2_o[2] targetAddr2_o[1] 
+ targetAddr2_o[0] prediction2_o btbHit3_i targetAddr3_i[31] targetAddr3_i[30] targetAddr3_i[29] 
+ targetAddr3_i[28] targetAddr3_i[27] targetAddr3_i[26] targetAddr3_i[25] targetAddr3_i[24] 
+ targetAddr3_i[23] targetAddr3_i[22] targetAddr3_i[21] targetAddr3_i[20] targetAddr3_i[19] 
+ targetAddr3_i[18] targetAddr3_i[17] targetAddr3_i[16] targetAddr3_i[15] targetAddr3_i[14] 
+ targetAddr3_i[13] targetAddr3_i[12] targetAddr3_i[11] targetAddr3_i[10] targetAddr3_i[9] 
+ targetAddr3_i[8] targetAddr3_i[7] targetAddr3_i[6] targetAddr3_i[5] targetAddr3_i[4] 
+ targetAddr3_i[3] targetAddr3_i[2] targetAddr3_i[1] targetAddr3_i[0] prediction3_i 
+ btbHit3_o targetAddr3_o[31] targetAddr3_o[30] targetAddr3_o[29] targetAddr3_o[28] 
+ targetAddr3_o[27] targetAddr3_o[26] targetAddr3_o[25] targetAddr3_o[24] targetAddr3_o[23] 
+ targetAddr3_o[22] targetAddr3_o[21] targetAddr3_o[20] targetAddr3_o[19] targetAddr3_o[18] 
+ targetAddr3_o[17] targetAddr3_o[16] targetAddr3_o[15] targetAddr3_o[14] targetAddr3_o[13] 
+ targetAddr3_o[12] targetAddr3_o[11] targetAddr3_o[10] targetAddr3_o[9] targetAddr3_o[8] 
+ targetAddr3_o[7] targetAddr3_o[6] targetAddr3_o[5] targetAddr3_o[4] targetAddr3_o[3] 
+ targetAddr3_o[2] targetAddr3_o[1] targetAddr3_o[0] prediction3_o reset flush_i 
+ stall_i fs1Ready_i pc_i[31] pc_i[30] pc_i[29] pc_i[28] pc_i[27] pc_i[26] pc_i[25] 
+ pc_i[24] pc_i[23] pc_i[22] pc_i[21] pc_i[20] pc_i[19] pc_i[18] pc_i[17] pc_i[16] 
+ pc_i[15] pc_i[14] pc_i[13] pc_i[12] pc_i[11] pc_i[10] pc_i[9] pc_i[8] pc_i[7] 
+ pc_i[6] pc_i[5] pc_i[4] pc_i[3] pc_i[2] pc_i[1] pc_i[0] instructionBundle_i[255] 
+ instructionBundle_i[254] instructionBundle_i[253] instructionBundle_i[252] instructionBundle_i[251] 
+ instructionBundle_i[250] instructionBundle_i[249] instructionBundle_i[248] instructionBundle_i[247] 
+ instructionBundle_i[246] instructionBundle_i[245] instructionBundle_i[244] instructionBundle_i[243] 
+ instructionBundle_i[242] instructionBundle_i[241] instructionBundle_i[240] instructionBundle_i[239] 
+ instructionBundle_i[238] instructionBundle_i[237] instructionBundle_i[236] instructionBundle_i[235] 
+ instructionBundle_i[234] instructionBundle_i[233] instructionBundle_i[232] instructionBundle_i[231] 
+ instructionBundle_i[230] instructionBundle_i[229] instructionBundle_i[228] instructionBundle_i[227] 
+ instructionBundle_i[226] instructionBundle_i[225] instructionBundle_i[224] instructionBundle_i[223] 
+ instructionBundle_i[222] instructionBundle_i[221] instructionBundle_i[220] instructionBundle_i[219] 
+ instructionBundle_i[218] instructionBundle_i[217] instructionBundle_i[216] instructionBundle_i[215] 
+ instructionBundle_i[214] instructionBundle_i[213] instructionBundle_i[212] instructionBundle_i[211] 
+ instructionBundle_i[210] instructionBundle_i[209] instructionBundle_i[208] instructionBundle_i[207] 
+ instructionBundle_i[206] instructionBundle_i[205] instructionBundle_i[204] instructionBundle_i[203] 
+ instructionBundle_i[202] instructionBundle_i[201] instructionBundle_i[200] instructionBundle_i[199] 
+ instructionBundle_i[198] instructionBundle_i[197] instructionBundle_i[196] instructionBundle_i[195] 
+ instructionBundle_i[194] instructionBundle_i[193] instructionBundle_i[192] instructionBundle_i[191] 
+ instructionBundle_i[190] instructionBundle_i[189] instructionBundle_i[188] instructionBundle_i[187] 
+ instructionBundle_i[186] instructionBundle_i[185] instructionBundle_i[184] instructionBundle_i[183] 
+ instructionBundle_i[182] instructionBundle_i[181] instructionBundle_i[180] instructionBundle_i[179] 
+ instructionBundle_i[178] instructionBundle_i[177] instructionBundle_i[176] instructionBundle_i[175] 
+ instructionBundle_i[174] instructionBundle_i[173] instructionBundle_i[172] instructionBundle_i[171] 
+ instructionBundle_i[170] instructionBundle_i[169] instructionBundle_i[168] instructionBundle_i[167] 
+ instructionBundle_i[166] instructionBundle_i[165] instructionBundle_i[164] instructionBundle_i[163] 
+ instructionBundle_i[162] instructionBundle_i[161] instructionBundle_i[160] instructionBundle_i[159] 
+ instructionBundle_i[158] instructionBundle_i[157] instructionBundle_i[156] instructionBundle_i[155] 
+ instructionBundle_i[154] instructionBundle_i[153] instructionBundle_i[152] instructionBundle_i[151] 
+ instructionBundle_i[150] instructionBundle_i[149] instructionBundle_i[148] instructionBundle_i[147] 
+ instructionBundle_i[146] instructionBundle_i[145] instructionBundle_i[144] instructionBundle_i[143] 
+ instructionBundle_i[142] instructionBundle_i[141] instructionBundle_i[140] instructionBundle_i[139] 
+ instructionBundle_i[138] instructionBundle_i[137] instructionBundle_i[136] instructionBundle_i[135] 
+ instructionBundle_i[134] instructionBundle_i[133] instructionBundle_i[132] instructionBundle_i[131] 
+ instructionBundle_i[130] instructionBundle_i[129] instructionBundle_i[128] instructionBundle_i[127] 
+ instructionBundle_i[126] instructionBundle_i[125] instructionBundle_i[124] instructionBundle_i[123] 
+ instructionBundle_i[122] instructionBundle_i[121] instructionBundle_i[120] instructionBundle_i[119] 
+ instructionBundle_i[118] instructionBundle_i[117] instructionBundle_i[116] instructionBundle_i[115] 
+ instructionBundle_i[114] instructionBundle_i[113] instructionBundle_i[112] instructionBundle_i[111] 
+ instructionBundle_i[110] instructionBundle_i[109] instructionBundle_i[108] instructionBundle_i[107] 
+ instructionBundle_i[106] instructionBundle_i[105] instructionBundle_i[104] instructionBundle_i[103] 
+ instructionBundle_i[102] instructionBundle_i[101] instructionBundle_i[100] instructionBundle_i[99] 
+ instructionBundle_i[98] instructionBundle_i[97] instructionBundle_i[96] instructionBundle_i[95] 
+ instructionBundle_i[94] instructionBundle_i[93] instructionBundle_i[92] instructionBundle_i[91] 
+ instructionBundle_i[90] instructionBundle_i[89] instructionBundle_i[88] instructionBundle_i[87] 
+ instructionBundle_i[86] instructionBundle_i[85] instructionBundle_i[84] instructionBundle_i[83] 
+ instructionBundle_i[82] instructionBundle_i[81] instructionBundle_i[80] instructionBundle_i[79] 
+ instructionBundle_i[78] instructionBundle_i[77] instructionBundle_i[76] instructionBundle_i[75] 
+ instructionBundle_i[74] instructionBundle_i[73] instructionBundle_i[72] instructionBundle_i[71] 
+ instructionBundle_i[70] instructionBundle_i[69] instructionBundle_i[68] instructionBundle_i[67] 
+ instructionBundle_i[66] instructionBundle_i[65] instructionBundle_i[64] instructionBundle_i[63] 
+ instructionBundle_i[62] instructionBundle_i[61] instructionBundle_i[60] instructionBundle_i[59] 
+ instructionBundle_i[58] instructionBundle_i[57] instructionBundle_i[56] instructionBundle_i[55] 
+ instructionBundle_i[54] instructionBundle_i[53] instructionBundle_i[52] instructionBundle_i[51] 
+ instructionBundle_i[50] instructionBundle_i[49] instructionBundle_i[48] instructionBundle_i[47] 
+ instructionBundle_i[46] instructionBundle_i[45] instructionBundle_i[44] instructionBundle_i[43] 
+ instructionBundle_i[42] instructionBundle_i[41] instructionBundle_i[40] instructionBundle_i[39] 
+ instructionBundle_i[38] instructionBundle_i[37] instructionBundle_i[36] instructionBundle_i[35] 
+ instructionBundle_i[34] instructionBundle_i[33] instructionBundle_i[32] instructionBundle_i[31] 
+ instructionBundle_i[30] instructionBundle_i[29] instructionBundle_i[28] instructionBundle_i[27] 
+ instructionBundle_i[26] instructionBundle_i[25] instructionBundle_i[24] instructionBundle_i[23] 
+ instructionBundle_i[22] instructionBundle_i[21] instructionBundle_i[20] instructionBundle_i[19] 
+ instructionBundle_i[18] instructionBundle_i[17] instructionBundle_i[16] instructionBundle_i[15] 
+ instructionBundle_i[14] instructionBundle_i[13] instructionBundle_i[12] instructionBundle_i[11] 
+ instructionBundle_i[10] instructionBundle_i[9] instructionBundle_i[8] instructionBundle_i[7] 
+ instructionBundle_i[6] instructionBundle_i[5] instructionBundle_i[4] instructionBundle_i[3] 
+ instructionBundle_i[2] instructionBundle_i[1] instructionBundle_i[0] pc_o[31] 
+ pc_o[30] pc_o[29] pc_o[28] pc_o[27] pc_o[26] pc_o[25] pc_o[24] pc_o[23] pc_o[22] 
+ pc_o[21] pc_o[20] pc_o[19] pc_o[18] pc_o[17] pc_o[16] pc_o[15] pc_o[14] pc_o[13] 
+ pc_o[12] pc_o[11] pc_o[10] pc_o[9] pc_o[8] pc_o[7] pc_o[6] pc_o[5] pc_o[4] pc_o[3] 
+ pc_o[2] pc_o[1] pc_o[0] instructionBundle_o[255] instructionBundle_o[254] instructionBundle_o[253] 
+ instructionBundle_o[252] instructionBundle_o[251] instructionBundle_o[250] instructionBundle_o[249] 
+ instructionBundle_o[248] instructionBundle_o[247] instructionBundle_o[246] instructionBundle_o[245] 
+ instructionBundle_o[244] instructionBundle_o[243] instructionBundle_o[242] instructionBundle_o[241] 
+ instructionBundle_o[240] instructionBundle_o[239] instructionBundle_o[238] instructionBundle_o[237] 
+ instructionBundle_o[236] instructionBundle_o[235] instructionBundle_o[234] instructionBundle_o[233] 
+ instructionBundle_o[232] instructionBundle_o[231] instructionBundle_o[230] instructionBundle_o[229] 
+ instructionBundle_o[228] instructionBundle_o[227] instructionBundle_o[226] instructionBundle_o[225] 
+ instructionBundle_o[224] instructionBundle_o[223] instructionBundle_o[222] instructionBundle_o[221] 
+ instructionBundle_o[220] instructionBundle_o[219] instructionBundle_o[218] instructionBundle_o[217] 
+ instructionBundle_o[216] instructionBundle_o[215] instructionBundle_o[214] instructionBundle_o[213] 
+ instructionBundle_o[212] instructionBundle_o[211] instructionBundle_o[210] instructionBundle_o[209] 
+ instructionBundle_o[208] instructionBundle_o[207] instructionBundle_o[206] instructionBundle_o[205] 
+ instructionBundle_o[204] instructionBundle_o[203] instructionBundle_o[202] instructionBundle_o[201] 
+ instructionBundle_o[200] instructionBundle_o[199] instructionBundle_o[198] instructionBundle_o[197] 
+ instructionBundle_o[196] instructionBundle_o[195] instructionBundle_o[194] instructionBundle_o[193] 
+ instructionBundle_o[192] instructionBundle_o[191] instructionBundle_o[190] instructionBundle_o[189] 
+ instructionBundle_o[188] instructionBundle_o[187] instructionBundle_o[186] instructionBundle_o[185] 
+ instructionBundle_o[184] instructionBundle_o[183] instructionBundle_o[182] instructionBundle_o[181] 
+ instructionBundle_o[180] instructionBundle_o[179] instructionBundle_o[178] instructionBundle_o[177] 
+ instructionBundle_o[176] instructionBundle_o[175] instructionBundle_o[174] instructionBundle_o[173] 
+ instructionBundle_o[172] instructionBundle_o[171] instructionBundle_o[170] instructionBundle_o[169] 
+ instructionBundle_o[168] instructionBundle_o[167] instructionBundle_o[166] instructionBundle_o[165] 
+ instructionBundle_o[164] instructionBundle_o[163] instructionBundle_o[162] instructionBundle_o[161] 
+ instructionBundle_o[160] instructionBundle_o[159] instructionBundle_o[158] instructionBundle_o[157] 
+ instructionBundle_o[156] instructionBundle_o[155] instructionBundle_o[154] instructionBundle_o[153] 
+ instructionBundle_o[152] instructionBundle_o[151] instructionBundle_o[150] instructionBundle_o[149] 
+ instructionBundle_o[148] instructionBundle_o[147] instructionBundle_o[146] instructionBundle_o[145] 
+ instructionBundle_o[144] instructionBundle_o[143] instructionBundle_o[142] instructionBundle_o[141] 
+ instructionBundle_o[140] instructionBundle_o[139] instructionBundle_o[138] instructionBundle_o[137] 
+ instructionBundle_o[136] instructionBundle_o[135] instructionBundle_o[134] instructionBundle_o[133] 
+ instructionBundle_o[132] instructionBundle_o[131] instructionBundle_o[130] instructionBundle_o[129] 
+ instructionBundle_o[128] instructionBundle_o[127] instructionBundle_o[126] instructionBundle_o[125] 
+ instructionBundle_o[124] instructionBundle_o[123] instructionBundle_o[122] instructionBundle_o[121] 
+ instructionBundle_o[120] instructionBundle_o[119] instructionBundle_o[118] instructionBundle_o[117] 
+ instructionBundle_o[116] instructionBundle_o[115] instructionBundle_o[114] instructionBundle_o[113] 
+ instructionBundle_o[112] instructionBundle_o[111] instructionBundle_o[110] instructionBundle_o[109] 
+ instructionBundle_o[108] instructionBundle_o[107] instructionBundle_o[106] instructionBundle_o[105] 
+ instructionBundle_o[104] instructionBundle_o[103] instructionBundle_o[102] instructionBundle_o[101] 
+ instructionBundle_o[100] instructionBundle_o[99] instructionBundle_o[98] instructionBundle_o[97] 
+ instructionBundle_o[96] instructionBundle_o[95] instructionBundle_o[94] instructionBundle_o[93] 
+ instructionBundle_o[92] instructionBundle_o[91] instructionBundle_o[90] instructionBundle_o[89] 
+ instructionBundle_o[88] instructionBundle_o[87] instructionBundle_o[86] instructionBundle_o[85] 
+ instructionBundle_o[84] instructionBundle_o[83] instructionBundle_o[82] instructionBundle_o[81] 
+ instructionBundle_o[80] instructionBundle_o[79] instructionBundle_o[78] instructionBundle_o[77] 
+ instructionBundle_o[76] instructionBundle_o[75] instructionBundle_o[74] instructionBundle_o[73] 
+ instructionBundle_o[72] instructionBundle_o[71] instructionBundle_o[70] instructionBundle_o[69] 
+ instructionBundle_o[68] instructionBundle_o[67] instructionBundle_o[66] instructionBundle_o[65] 
+ instructionBundle_o[64] instructionBundle_o[63] instructionBundle_o[62] instructionBundle_o[61] 
+ instructionBundle_o[60] instructionBundle_o[59] instructionBundle_o[58] instructionBundle_o[57] 
+ instructionBundle_o[56] instructionBundle_o[55] instructionBundle_o[54] instructionBundle_o[53] 
+ instructionBundle_o[52] instructionBundle_o[51] instructionBundle_o[50] instructionBundle_o[49] 
+ instructionBundle_o[48] instructionBundle_o[47] instructionBundle_o[46] instructionBundle_o[45] 
+ instructionBundle_o[44] instructionBundle_o[43] instructionBundle_o[42] instructionBundle_o[41] 
+ instructionBundle_o[40] instructionBundle_o[39] instructionBundle_o[38] instructionBundle_o[37] 
+ instructionBundle_o[36] instructionBundle_o[35] instructionBundle_o[34] instructionBundle_o[33] 
+ instructionBundle_o[32] instructionBundle_o[31] instructionBundle_o[30] instructionBundle_o[29] 
+ instructionBundle_o[28] instructionBundle_o[27] instructionBundle_o[26] instructionBundle_o[25] 
+ instructionBundle_o[24] instructionBundle_o[23] instructionBundle_o[22] instructionBundle_o[21] 
+ instructionBundle_o[20] instructionBundle_o[19] instructionBundle_o[18] instructionBundle_o[17] 
+ instructionBundle_o[16] instructionBundle_o[15] instructionBundle_o[14] instructionBundle_o[13] 
+ instructionBundle_o[12] instructionBundle_o[11] instructionBundle_o[10] instructionBundle_o[9] 
+ instructionBundle_o[8] instructionBundle_o[7] instructionBundle_o[6] instructionBundle_o[5] 
+ instructionBundle_o[4] instructionBundle_o[3] instructionBundle_o[2] instructionBundle_o[1] 
+ instructionBundle_o[0] fs1Ready_o 
XU2216 n2173 n2215 INVX1_RVT 
XU2215 n2173 n2214 INVX1_RVT 
XU2214 n2172 n2213 INVX1_RVT 
XU2213 n2172 n2212 INVX1_RVT 
XU2212 n2172 n2211 INVX1_RVT 
XU2211 n2171 n2210 INVX1_RVT 
XU2210 n2171 n2209 INVX1_RVT 
XU2209 n2171 n2208 INVX1_RVT 
XU2208 n2174 n2207 INVX1_RVT 
XU2207 n2208 n2206 INVX1_RVT 
XU2206 n2210 n2205 INVX1_RVT 
XU2205 n2209 n2204 INVX1_RVT 
XU2204 n2214 n2203 INVX1_RVT 
XU2203 n2215 n2202 INVX1_RVT 
XU2202 n2211 n2201 INVX1_RVT 
XU2201 n2212 n2200 INVX1_RVT 
XU2200 n2213 n2199 INVX1_RVT 
XU2199 n2208 n2198 INVX1_RVT 
XU2198 n2208 n2197 INVX1_RVT 
XU2197 n2208 n2196 INVX1_RVT 
XU2196 n2209 n2195 INVX1_RVT 
XU2195 n2209 n2194 INVX1_RVT 
XU2194 n2209 n2193 INVX1_RVT 
XU2193 n2210 n2192 INVX1_RVT 
XU2192 n2210 n2191 INVX1_RVT 
XU2191 n2210 n2190 INVX1_RVT 
XU2190 n2211 n2189 INVX1_RVT 
XU2189 n2211 n2188 INVX1_RVT 
XU2188 n2211 n2187 INVX1_RVT 
XU2187 n2212 n2186 INVX1_RVT 
XU2186 n2212 n2185 INVX1_RVT 
XU2185 n2212 n2184 INVX1_RVT 
XU2184 n2213 n2183 INVX1_RVT 
XU2183 n2213 n2182 INVX1_RVT 
XU2182 n2213 n2181 INVX1_RVT 
XU2181 n2214 n2180 INVX1_RVT 
XU2180 n2214 n2179 INVX1_RVT 
XU2179 n2214 n2178 INVX1_RVT 
XU2178 n2215 n2177 INVX1_RVT 
XU2177 n2215 n2176 INVX1_RVT 
XU2176 n2215 n2175 INVX1_RVT 
XU2175 n3 n2174 INVX1_RVT 
XU2174 n2174 n2173 INVX1_RVT 
XU2173 n2174 n2172 INVX1_RVT 
XU2172 n2174 n2171 INVX1_RVT 
XU2171 n2133 n2170 INVX1_RVT 
XU2170 n2132 n2169 INVX1_RVT 
XU2169 n2132 n2168 INVX1_RVT 
XU2168 n2132 n2167 INVX1_RVT 
XU2167 n2132 n2166 INVX1_RVT 
XU2166 n2132 n2165 INVX1_RVT 
XU2165 n2132 n2164 INVX1_RVT 
XU2164 n2164 n2163 INVX1_RVT 
XU2163 n2164 n2162 INVX1_RVT 
XU2162 n2164 n2161 INVX1_RVT 
XU2161 n2165 n2160 INVX1_RVT 
XU2160 n2165 n2159 INVX1_RVT 
XU2159 n2165 n2158 INVX1_RVT 
XU2158 n2166 n2157 INVX1_RVT 
XU2157 n2166 n2156 INVX1_RVT 
XU2156 n2166 n2155 INVX1_RVT 
XU2155 n2167 n2154 INVX1_RVT 
XU2154 n2164 n2153 INVX1_RVT 
XU2153 n2166 n2152 INVX1_RVT 
XU2152 n2167 n2151 INVX1_RVT 
XU2151 n2164 n2150 INVX1_RVT 
XU2150 n2166 n2149 INVX1_RVT 
XU2149 n2167 n2148 INVX1_RVT 
XU2148 n2167 n2147 INVX1_RVT 
XU2147 n2167 n2146 INVX1_RVT 
XU2146 n2168 n2145 INVX1_RVT 
XU2145 n2169 n2144 INVX1_RVT 
XU2144 n2165 n2143 INVX1_RVT 
XU2143 n2168 n2142 INVX1_RVT 
XU2142 n2168 n2141 INVX1_RVT 
XU2141 n2168 n2140 INVX1_RVT 
XU2140 n2169 n2139 INVX1_RVT 
XU2139 n2169 n2138 INVX1_RVT 
XU2138 n2169 n2137 INVX1_RVT 
XU2137 n2170 n2136 INVX1_RVT 
XU2136 n2170 n2135 INVX1_RVT 
XU2135 n4 n2134 INVX1_RVT 
XU2134 n2134 n2133 INVX1_RVT 
XU2133 n2134 n2132 INVX1_RVT 
XU2132 n2130 n2131 INVX1_RVT 
XU2131 n1281 n2130 INVX1_RVT 
XU2130 n2128 n2129 INVX1_RVT 
XU2129 n1280 n2128 INVX1_RVT 
XU2128 n2126 n2127 INVX1_RVT 
XU2127 n1279 n2126 INVX1_RVT 
XU2126 n2124 n2125 INVX1_RVT 
XU2125 n1278 n2124 INVX1_RVT 
XU2124 n2122 n2123 INVX1_RVT 
XU2123 n1277 n2122 INVX1_RVT 
XU2122 n2120 n2121 INVX1_RVT 
XU2121 n1276 n2120 INVX1_RVT 
XU2120 n2118 n2119 INVX1_RVT 
XU2119 n1275 n2118 INVX1_RVT 
XU2118 n2116 n2117 INVX1_RVT 
XU2117 n1274 n2116 INVX1_RVT 
XU2116 n2114 n2115 INVX1_RVT 
XU2115 n1273 n2114 INVX1_RVT 
XU2114 n2112 n2113 INVX1_RVT 
XU2113 n1272 n2112 INVX1_RVT 
XU2112 n2110 n2111 INVX1_RVT 
XU2111 n1271 n2110 INVX1_RVT 
XU2110 n2108 n2109 INVX1_RVT 
XU2109 n1270 n2108 INVX1_RVT 
XU2108 n2106 n2107 INVX1_RVT 
XU2107 n1269 n2106 INVX1_RVT 
XU2106 n2104 n2105 INVX1_RVT 
XU2105 n1268 n2104 INVX1_RVT 
XU2104 n2102 n2103 INVX1_RVT 
XU2103 n1267 n2102 INVX1_RVT 
XU2102 n2100 n2101 INVX1_RVT 
XU2101 n1266 n2100 INVX1_RVT 
XU2100 n2098 n2099 INVX1_RVT 
XU2099 n1265 n2098 INVX1_RVT 
XU2098 n2096 n2097 INVX1_RVT 
XU2097 n1264 n2096 INVX1_RVT 
XU2096 n2094 n2095 INVX1_RVT 
XU2095 n1263 n2094 INVX1_RVT 
XU2094 n2092 n2093 INVX1_RVT 
XU2093 n1262 n2092 INVX1_RVT 
XU2092 n2090 n2091 INVX1_RVT 
XU2091 n1261 n2090 INVX1_RVT 
XU2090 n2088 n2089 INVX1_RVT 
XU2089 n1260 n2088 INVX1_RVT 
XU2088 n2086 n2087 INVX1_RVT 
XU2087 n1259 n2086 INVX1_RVT 
XU2086 n2084 n2085 INVX1_RVT 
XU2085 n1258 n2084 INVX1_RVT 
XU2084 n2082 n2083 INVX1_RVT 
XU2083 n1257 n2082 INVX1_RVT 
XU2082 n2080 n2081 INVX1_RVT 
XU2081 n1256 n2080 INVX1_RVT 
XU2080 n2078 n2079 INVX1_RVT 
XU2079 n1255 n2078 INVX1_RVT 
XU2078 n2076 n2077 INVX1_RVT 
XU2077 n1254 n2076 INVX1_RVT 
XU2076 n2074 n2075 INVX1_RVT 
XU2075 n1253 n2074 INVX1_RVT 
XU2074 n2072 n2073 INVX1_RVT 
XU2073 n1252 n2072 INVX1_RVT 
XU2072 n2070 n2071 INVX1_RVT 
XU2071 n1251 n2070 INVX1_RVT 
XU2070 n2068 n2069 INVX1_RVT 
XU2069 n1250 n2068 INVX1_RVT 
XU2068 n2066 n2067 INVX1_RVT 
XU2067 n1249 n2066 INVX1_RVT 
XU2066 n2064 n2065 INVX1_RVT 
XU2065 n1248 n2064 INVX1_RVT 
XU2064 n2062 n2063 INVX1_RVT 
XU2063 n1247 n2062 INVX1_RVT 
XU2062 n2060 n2061 INVX1_RVT 
XU2061 n1246 n2060 INVX1_RVT 
XU2060 n2058 n2059 INVX1_RVT 
XU2059 n1245 n2058 INVX1_RVT 
XU2058 n2056 n2057 INVX1_RVT 
XU2057 n1244 n2056 INVX1_RVT 
XU2056 n2054 n2055 INVX1_RVT 
XU2055 n1243 n2054 INVX1_RVT 
XU2054 n2052 n2053 INVX1_RVT 
XU2053 n1242 n2052 INVX1_RVT 
XU2052 n2050 n2051 INVX1_RVT 
XU2051 n1241 n2050 INVX1_RVT 
XU2050 n2048 n2049 INVX1_RVT 
XU2049 n1240 n2048 INVX1_RVT 
XU2048 n2046 n2047 INVX1_RVT 
XU2047 n1239 n2046 INVX1_RVT 
XU2046 n2044 n2045 INVX1_RVT 
XU2045 n1238 n2044 INVX1_RVT 
XU2044 n2042 n2043 INVX1_RVT 
XU2043 n1237 n2042 INVX1_RVT 
XU2042 n2040 n2041 INVX1_RVT 
XU2041 n1236 n2040 INVX1_RVT 
XU2040 n2038 n2039 INVX1_RVT 
XU2039 n1235 n2038 INVX1_RVT 
XU2038 n2036 n2037 INVX1_RVT 
XU2037 n1234 n2036 INVX1_RVT 
XU2036 n2034 n2035 INVX1_RVT 
XU2035 n1233 n2034 INVX1_RVT 
XU2034 n2032 n2033 INVX1_RVT 
XU2033 n1232 n2032 INVX1_RVT 
XU2032 n2030 n2031 INVX1_RVT 
XU2031 n1231 n2030 INVX1_RVT 
XU2030 n2028 n2029 INVX1_RVT 
XU2029 n1230 n2028 INVX1_RVT 
XU2028 n2026 n2027 INVX1_RVT 
XU2027 n1229 n2026 INVX1_RVT 
XU2026 n2024 n2025 INVX1_RVT 
XU2025 n1228 n2024 INVX1_RVT 
XU2024 n2022 n2023 INVX1_RVT 
XU2023 n1227 n2022 INVX1_RVT 
XU2022 n2020 n2021 INVX1_RVT 
XU2021 n1226 n2020 INVX1_RVT 
XU2020 n2018 n2019 INVX1_RVT 
XU2019 n1225 n2018 INVX1_RVT 
XU2018 n2016 n2017 INVX1_RVT 
XU2017 n1224 n2016 INVX1_RVT 
XU2016 n2014 n2015 INVX1_RVT 
XU2015 n1223 n2014 INVX1_RVT 
XU2014 n2012 n2013 INVX1_RVT 
XU2013 n1222 n2012 INVX1_RVT 
XU2012 n2010 n2011 INVX1_RVT 
XU2011 n1221 n2010 INVX1_RVT 
XU2010 n2008 n2009 INVX1_RVT 
XU2009 n1220 n2008 INVX1_RVT 
XU2008 n2006 n2007 INVX1_RVT 
XU2007 n1219 n2006 INVX1_RVT 
XU2006 n2004 n2005 INVX1_RVT 
XU2005 n1218 n2004 INVX1_RVT 
XU2004 n2002 n2003 INVX1_RVT 
XU2003 n1217 n2002 INVX1_RVT 
XU2002 n2000 n2001 INVX1_RVT 
XU2001 n1216 n2000 INVX1_RVT 
XU2000 n1998 n1999 INVX1_RVT 
XU1999 n1215 n1998 INVX1_RVT 
XU1998 n1996 n1997 INVX1_RVT 
XU1997 n1214 n1996 INVX1_RVT 
XU1996 n1994 n1995 INVX1_RVT 
XU1995 n1213 n1994 INVX1_RVT 
XU1994 n1992 n1993 INVX1_RVT 
XU1993 n1212 n1992 INVX1_RVT 
XU1992 n1990 n1991 INVX1_RVT 
XU1991 n1211 n1990 INVX1_RVT 
XU1990 n1988 n1989 INVX1_RVT 
XU1989 n1210 n1988 INVX1_RVT 
XU1988 n1986 n1987 INVX1_RVT 
XU1987 n1209 n1986 INVX1_RVT 
XU1986 n1984 n1985 INVX1_RVT 
XU1985 n1208 n1984 INVX1_RVT 
XU1984 n1982 n1983 INVX1_RVT 
XU1983 n1207 n1982 INVX1_RVT 
XU1982 n1980 n1981 INVX1_RVT 
XU1981 n1206 n1980 INVX1_RVT 
XU1980 n1978 n1979 INVX1_RVT 
XU1979 n1205 n1978 INVX1_RVT 
XU1978 n1976 n1977 INVX1_RVT 
XU1977 n1204 n1976 INVX1_RVT 
XU1976 n1974 n1975 INVX1_RVT 
XU1975 n1203 n1974 INVX1_RVT 
XU1974 n1972 n1973 INVX1_RVT 
XU1973 n1202 n1972 INVX1_RVT 
XU1972 n1970 n1971 INVX1_RVT 
XU1971 n1201 n1970 INVX1_RVT 
XU1970 n1968 n1969 INVX1_RVT 
XU1969 n1200 n1968 INVX1_RVT 
XU1968 n1966 n1967 INVX1_RVT 
XU1967 n1199 n1966 INVX1_RVT 
XU1966 n1964 n1965 INVX1_RVT 
XU1965 n1198 n1964 INVX1_RVT 
XU1964 n1962 n1963 INVX1_RVT 
XU1963 n1197 n1962 INVX1_RVT 
XU1962 n1960 n1961 INVX1_RVT 
XU1961 n1196 n1960 INVX1_RVT 
XU1960 n1958 n1959 INVX1_RVT 
XU1959 n1195 n1958 INVX1_RVT 
XU1958 n1956 n1957 INVX1_RVT 
XU1957 n1194 n1956 INVX1_RVT 
XU1956 n1954 n1955 INVX1_RVT 
XU1955 n1193 n1954 INVX1_RVT 
XU1954 n1952 n1953 INVX1_RVT 
XU1953 n1192 n1952 INVX1_RVT 
XU1952 n1950 n1951 INVX1_RVT 
XU1951 n1191 n1950 INVX1_RVT 
XU1950 n1948 n1949 INVX1_RVT 
XU1949 n1190 n1948 INVX1_RVT 
XU1948 n1946 n1947 INVX1_RVT 
XU1947 n1189 n1946 INVX1_RVT 
XU1946 n1944 n1945 INVX1_RVT 
XU1945 n1188 n1944 INVX1_RVT 
XU1944 n1942 n1943 INVX1_RVT 
XU1943 n1187 n1942 INVX1_RVT 
XU1942 n1940 n1941 INVX1_RVT 
XU1941 n1186 n1940 INVX1_RVT 
XU1940 n1938 n1939 INVX1_RVT 
XU1939 n1185 n1938 INVX1_RVT 
XU1938 n1936 n1937 INVX1_RVT 
XU1937 n1184 n1936 INVX1_RVT 
XU1936 n1934 n1935 INVX1_RVT 
XU1935 n1183 n1934 INVX1_RVT 
XU1934 n1932 n1933 INVX1_RVT 
XU1933 n1182 n1932 INVX1_RVT 
XU1932 n1930 n1931 INVX1_RVT 
XU1931 n1181 n1930 INVX1_RVT 
XU1930 n1928 n1929 INVX1_RVT 
XU1929 n1180 n1928 INVX1_RVT 
XU1928 n1926 n1927 INVX1_RVT 
XU1927 n1179 n1926 INVX1_RVT 
XU1926 n1924 n1925 INVX1_RVT 
XU1925 n1178 n1924 INVX1_RVT 
XU1924 n1922 n1923 INVX1_RVT 
XU1923 n1177 n1922 INVX1_RVT 
XU1922 n1920 n1921 INVX1_RVT 
XU1921 n1176 n1920 INVX1_RVT 
XU1920 n1918 n1919 INVX1_RVT 
XU1919 n1175 n1918 INVX1_RVT 
XU1918 n1916 n1917 INVX1_RVT 
XU1917 n1174 n1916 INVX1_RVT 
XU1916 n1914 n1915 INVX1_RVT 
XU1915 n1173 n1914 INVX1_RVT 
XU1914 n1912 n1913 INVX1_RVT 
XU1913 n1172 n1912 INVX1_RVT 
XU1912 n1910 n1911 INVX1_RVT 
XU1911 n1171 n1910 INVX1_RVT 
XU1910 n1908 n1909 INVX1_RVT 
XU1909 n1170 n1908 INVX1_RVT 
XU1908 n1906 n1907 INVX1_RVT 
XU1907 n1169 n1906 INVX1_RVT 
XU1906 n1904 n1905 INVX1_RVT 
XU1905 n1168 n1904 INVX1_RVT 
XU1904 n1902 n1903 INVX1_RVT 
XU1903 n1167 n1902 INVX1_RVT 
XU1902 n1900 n1901 INVX1_RVT 
XU1901 n1166 n1900 INVX1_RVT 
XU1900 n1898 n1899 INVX1_RVT 
XU1899 n1165 n1898 INVX1_RVT 
XU1898 n1896 n1897 INVX1_RVT 
XU1897 n1164 n1896 INVX1_RVT 
XU1896 n1894 n1895 INVX1_RVT 
XU1895 n1163 n1894 INVX1_RVT 
XU1894 n1892 n1893 INVX1_RVT 
XU1893 n1162 n1892 INVX1_RVT 
XU1892 n1890 n1891 INVX1_RVT 
XU1891 n1161 n1890 INVX1_RVT 
XU1890 n1888 n1889 INVX1_RVT 
XU1889 n1160 n1888 INVX1_RVT 
XU1888 n1886 n1887 INVX1_RVT 
XU1887 n1159 n1886 INVX1_RVT 
XU1886 n1884 n1885 INVX1_RVT 
XU1885 n1158 n1884 INVX1_RVT 
XU1884 n1882 n1883 INVX1_RVT 
XU1883 n1157 n1882 INVX1_RVT 
XU1882 n1880 n1881 INVX1_RVT 
XU1881 n1156 n1880 INVX1_RVT 
XU1880 n1878 n1879 INVX1_RVT 
XU1879 n1155 n1878 INVX1_RVT 
XU1878 n1876 n1877 INVX1_RVT 
XU1877 n1154 n1876 INVX1_RVT 
XU1876 n1874 n1875 INVX1_RVT 
XU1875 n1153 n1874 INVX1_RVT 
XU1874 n1872 n1873 INVX1_RVT 
XU1873 n1152 n1872 INVX1_RVT 
XU1872 n1870 n1871 INVX1_RVT 
XU1871 n1151 n1870 INVX1_RVT 
XU1870 n1868 n1869 INVX1_RVT 
XU1869 n1150 n1868 INVX1_RVT 
XU1868 n1866 n1867 INVX1_RVT 
XU1867 n1149 n1866 INVX1_RVT 
XU1866 n1864 n1865 INVX1_RVT 
XU1865 n1148 n1864 INVX1_RVT 
XU1864 n1862 n1863 INVX1_RVT 
XU1863 n1147 n1862 INVX1_RVT 
XU1862 n1860 n1861 INVX1_RVT 
XU1861 n1146 n1860 INVX1_RVT 
XU1860 n1858 n1859 INVX1_RVT 
XU1859 n1145 n1858 INVX1_RVT 
XU1858 n1856 n1857 INVX1_RVT 
XU1857 n1144 n1856 INVX1_RVT 
XU1856 n1854 n1855 INVX1_RVT 
XU1855 n1143 n1854 INVX1_RVT 
XU1854 n1852 n1853 INVX1_RVT 
XU1853 n1142 n1852 INVX1_RVT 
XU1852 n1850 n1851 INVX1_RVT 
XU1851 n1141 n1850 INVX1_RVT 
XU1850 n1848 n1849 INVX1_RVT 
XU1849 n1140 n1848 INVX1_RVT 
XU1848 n1846 n1847 INVX1_RVT 
XU1847 n1139 n1846 INVX1_RVT 
XU1846 n1844 n1845 INVX1_RVT 
XU1845 n1138 n1844 INVX1_RVT 
XU1844 n1842 n1843 INVX1_RVT 
XU1843 n1137 n1842 INVX1_RVT 
XU1842 n1840 n1841 INVX1_RVT 
XU1841 n1136 n1840 INVX1_RVT 