* Nettran: AMD.64 Release B-2008.09.SP5.HF2.26004 2012/07/19
* Created:  6/23/2016  12:28
* Options: -verilog netlist.v -outName netlist.sp -verilog-b1 VDD -verilog-b0 GND -outType spice 

.GLOBAL VDD GND 

.SUBCKT RenameDispatch clk reset flush_i stall_i ctrlVerified_i renameReady_i renamedPacket0_i[144] 
+ renamedPacket0_i[143] renamedPacket0_i[142] renamedPacket0_i[141] renamedPacket0_i[140] 
+ renamedPacket0_i[139] renamedPacket0_i[138] renamedPacket0_i[137] renamedPacket0_i[136] 
+ renamedPacket0_i[135] renamedPacket0_i[134] renamedPacket0_i[133] renamedPacket0_i[132] 
+ renamedPacket0_i[131] renamedPacket0_i[130] renamedPacket0_i[129] renamedPacket0_i[128] 
+ renamedPacket0_i[127] renamedPacket0_i[126] renamedPacket0_i[125] renamedPacket0_i[124] 
+ renamedPacket0_i[123] renamedPacket0_i[122] renamedPacket0_i[121] renamedPacket0_i[120] 
+ renamedPacket0_i[119] renamedPacket0_i[118] renamedPacket0_i[117] renamedPacket0_i[116] 
+ renamedPacket0_i[115] renamedPacket0_i[114] renamedPacket0_i[113] renamedPacket0_i[112] 
+ renamedPacket0_i[111] renamedPacket0_i[110] renamedPacket0_i[109] renamedPacket0_i[108] 
+ renamedPacket0_i[107] renamedPacket0_i[106] renamedPacket0_i[105] renamedPacket0_i[104] 
+ renamedPacket0_i[103] renamedPacket0_i[102] renamedPacket0_i[101] renamedPacket0_i[100] 
+ renamedPacket0_i[99] renamedPacket0_i[98] renamedPacket0_i[97] renamedPacket0_i[96] 
+ renamedPacket0_i[95] renamedPacket0_i[94] renamedPacket0_i[93] renamedPacket0_i[92] 
+ renamedPacket0_i[91] renamedPacket0_i[90] renamedPacket0_i[89] renamedPacket0_i[88] 
+ renamedPacket0_i[87] renamedPacket0_i[86] renamedPacket0_i[85] renamedPacket0_i[84] 
+ renamedPacket0_i[83] renamedPacket0_i[82] renamedPacket0_i[81] renamedPacket0_i[80] 
+ renamedPacket0_i[79] renamedPacket0_i[78] renamedPacket0_i[77] renamedPacket0_i[76] 
+ renamedPacket0_i[75] renamedPacket0_i[74] renamedPacket0_i[73] renamedPacket0_i[72] 
+ renamedPacket0_i[71] renamedPacket0_i[70] renamedPacket0_i[69] renamedPacket0_i[68] 
+ renamedPacket0_i[67] renamedPacket0_i[66] renamedPacket0_i[65] renamedPacket0_i[64] 
+ renamedPacket0_i[63] renamedPacket0_i[62] renamedPacket0_i[61] renamedPacket0_i[60] 
+ renamedPacket0_i[59] renamedPacket0_i[58] renamedPacket0_i[57] renamedPacket0_i[56] 
+ renamedPacket0_i[55] renamedPacket0_i[54] renamedPacket0_i[53] renamedPacket0_i[52] 
+ renamedPacket0_i[51] renamedPacket0_i[50] renamedPacket0_i[49] renamedPacket0_i[48] 
+ renamedPacket0_i[47] renamedPacket0_i[46] renamedPacket0_i[45] renamedPacket0_i[44] 
+ renamedPacket0_i[43] renamedPacket0_i[42] renamedPacket0_i[41] renamedPacket0_i[40] 
+ renamedPacket0_i[39] renamedPacket0_i[38] renamedPacket0_i[37] renamedPacket0_i[36] 
+ renamedPacket0_i[35] renamedPacket0_i[34] renamedPacket0_i[33] renamedPacket0_i[32] 
+ renamedPacket0_i[31] renamedPacket0_i[30] renamedPacket0_i[29] renamedPacket0_i[28] 
+ renamedPacket0_i[27] renamedPacket0_i[26] renamedPacket0_i[25] renamedPacket0_i[24] 
+ renamedPacket0_i[23] renamedPacket0_i[22] renamedPacket0_i[21] renamedPacket0_i[20] 
+ renamedPacket0_i[19] renamedPacket0_i[18] renamedPacket0_i[17] renamedPacket0_i[16] 
+ renamedPacket0_i[15] renamedPacket0_i[14] renamedPacket0_i[13] renamedPacket0_i[12] 
+ renamedPacket0_i[11] renamedPacket0_i[10] renamedPacket0_i[9] renamedPacket0_i[8] 
+ renamedPacket0_i[7] renamedPacket0_i[6] renamedPacket0_i[5] renamedPacket0_i[4] 
+ renamedPacket0_i[3] renamedPacket0_i[2] renamedPacket0_i[1] renamedPacket0_i[0] 
+ renamedPacket1_i[144] renamedPacket1_i[143] renamedPacket1_i[142] renamedPacket1_i[141] 
+ renamedPacket1_i[140] renamedPacket1_i[139] renamedPacket1_i[138] renamedPacket1_i[137] 
+ renamedPacket1_i[136] renamedPacket1_i[135] renamedPacket1_i[134] renamedPacket1_i[133] 
+ renamedPacket1_i[132] renamedPacket1_i[131] renamedPacket1_i[130] renamedPacket1_i[129] 
+ renamedPacket1_i[128] renamedPacket1_i[127] renamedPacket1_i[126] renamedPacket1_i[125] 
+ renamedPacket1_i[124] renamedPacket1_i[123] renamedPacket1_i[122] renamedPacket1_i[121] 
+ renamedPacket1_i[120] renamedPacket1_i[119] renamedPacket1_i[118] renamedPacket1_i[117] 
+ renamedPacket1_i[116] renamedPacket1_i[115] renamedPacket1_i[114] renamedPacket1_i[113] 
+ renamedPacket1_i[112] renamedPacket1_i[111] renamedPacket1_i[110] renamedPacket1_i[109] 
+ renamedPacket1_i[108] renamedPacket1_i[107] renamedPacket1_i[106] renamedPacket1_i[105] 
+ renamedPacket1_i[104] renamedPacket1_i[103] renamedPacket1_i[102] renamedPacket1_i[101] 
+ renamedPacket1_i[100] renamedPacket1_i[99] renamedPacket1_i[98] renamedPacket1_i[97] 
+ renamedPacket1_i[96] renamedPacket1_i[95] renamedPacket1_i[94] renamedPacket1_i[93] 
+ renamedPacket1_i[92] renamedPacket1_i[91] renamedPacket1_i[90] renamedPacket1_i[89] 
+ renamedPacket1_i[88] renamedPacket1_i[87] renamedPacket1_i[86] renamedPacket1_i[85] 
+ renamedPacket1_i[84] renamedPacket1_i[83] renamedPacket1_i[82] renamedPacket1_i[81] 
+ renamedPacket1_i[80] renamedPacket1_i[79] renamedPacket1_i[78] renamedPacket1_i[77] 
+ renamedPacket1_i[76] renamedPacket1_i[75] renamedPacket1_i[74] renamedPacket1_i[73] 
+ renamedPacket1_i[72] renamedPacket1_i[71] renamedPacket1_i[70] renamedPacket1_i[69] 
+ renamedPacket1_i[68] renamedPacket1_i[67] renamedPacket1_i[66] renamedPacket1_i[65] 
+ renamedPacket1_i[64] renamedPacket1_i[63] renamedPacket1_i[62] renamedPacket1_i[61] 
+ renamedPacket1_i[60] renamedPacket1_i[59] renamedPacket1_i[58] renamedPacket1_i[57] 
+ renamedPacket1_i[56] renamedPacket1_i[55] renamedPacket1_i[54] renamedPacket1_i[53] 
+ renamedPacket1_i[52] renamedPacket1_i[51] renamedPacket1_i[50] renamedPacket1_i[49] 
+ renamedPacket1_i[48] renamedPacket1_i[47] renamedPacket1_i[46] renamedPacket1_i[45] 
+ renamedPacket1_i[44] renamedPacket1_i[43] renamedPacket1_i[42] renamedPacket1_i[41] 
+ renamedPacket1_i[40] renamedPacket1_i[39] renamedPacket1_i[38] renamedPacket1_i[37] 
+ renamedPacket1_i[36] renamedPacket1_i[35] renamedPacket1_i[34] renamedPacket1_i[33] 
+ renamedPacket1_i[32] renamedPacket1_i[31] renamedPacket1_i[30] renamedPacket1_i[29] 
+ renamedPacket1_i[28] renamedPacket1_i[27] renamedPacket1_i[26] renamedPacket1_i[25] 
+ renamedPacket1_i[24] renamedPacket1_i[23] renamedPacket1_i[22] renamedPacket1_i[21] 
+ renamedPacket1_i[20] renamedPacket1_i[19] renamedPacket1_i[18] renamedPacket1_i[17] 
+ renamedPacket1_i[16] renamedPacket1_i[15] renamedPacket1_i[14] renamedPacket1_i[13] 
+ renamedPacket1_i[12] renamedPacket1_i[11] renamedPacket1_i[10] renamedPacket1_i[9] 
+ renamedPacket1_i[8] renamedPacket1_i[7] renamedPacket1_i[6] renamedPacket1_i[5] 
+ renamedPacket1_i[4] renamedPacket1_i[3] renamedPacket1_i[2] renamedPacket1_i[1] 
+ renamedPacket1_i[0] renamedPacket2_i[144] renamedPacket2_i[143] renamedPacket2_i[142] 
+ renamedPacket2_i[141] renamedPacket2_i[140] renamedPacket2_i[139] renamedPacket2_i[138] 
+ renamedPacket2_i[137] renamedPacket2_i[136] renamedPacket2_i[135] renamedPacket2_i[134] 
+ renamedPacket2_i[133] renamedPacket2_i[132] renamedPacket2_i[131] renamedPacket2_i[130] 
+ renamedPacket2_i[129] renamedPacket2_i[128] renamedPacket2_i[127] renamedPacket2_i[126] 
+ renamedPacket2_i[125] renamedPacket2_i[124] renamedPacket2_i[123] renamedPacket2_i[122] 
+ renamedPacket2_i[121] renamedPacket2_i[120] renamedPacket2_i[119] renamedPacket2_i[118] 
+ renamedPacket2_i[117] renamedPacket2_i[116] renamedPacket2_i[115] renamedPacket2_i[114] 
+ renamedPacket2_i[113] renamedPacket2_i[112] renamedPacket2_i[111] renamedPacket2_i[110] 
+ renamedPacket2_i[109] renamedPacket2_i[108] renamedPacket2_i[107] renamedPacket2_i[106] 
+ renamedPacket2_i[105] renamedPacket2_i[104] renamedPacket2_i[103] renamedPacket2_i[102] 
+ renamedPacket2_i[101] renamedPacket2_i[100] renamedPacket2_i[99] renamedPacket2_i[98] 
+ renamedPacket2_i[97] renamedPacket2_i[96] renamedPacket2_i[95] renamedPacket2_i[94] 
+ renamedPacket2_i[93] renamedPacket2_i[92] renamedPacket2_i[91] renamedPacket2_i[90] 
+ renamedPacket2_i[89] renamedPacket2_i[88] renamedPacket2_i[87] renamedPacket2_i[86] 
+ renamedPacket2_i[85] renamedPacket2_i[84] renamedPacket2_i[83] renamedPacket2_i[82] 
+ renamedPacket2_i[81] renamedPacket2_i[80] renamedPacket2_i[79] renamedPacket2_i[78] 
+ renamedPacket2_i[77] renamedPacket2_i[76] renamedPacket2_i[75] renamedPacket2_i[74] 
+ renamedPacket2_i[73] renamedPacket2_i[72] renamedPacket2_i[71] renamedPacket2_i[70] 
+ renamedPacket2_i[69] renamedPacket2_i[68] renamedPacket2_i[67] renamedPacket2_i[66] 
+ renamedPacket2_i[65] renamedPacket2_i[64] renamedPacket2_i[63] renamedPacket2_i[62] 
+ renamedPacket2_i[61] renamedPacket2_i[60] renamedPacket2_i[59] renamedPacket2_i[58] 
+ renamedPacket2_i[57] renamedPacket2_i[56] renamedPacket2_i[55] renamedPacket2_i[54] 
+ renamedPacket2_i[53] renamedPacket2_i[52] renamedPacket2_i[51] renamedPacket2_i[50] 
+ renamedPacket2_i[49] renamedPacket2_i[48] renamedPacket2_i[47] renamedPacket2_i[46] 
+ renamedPacket2_i[45] renamedPacket2_i[44] renamedPacket2_i[43] renamedPacket2_i[42] 
+ renamedPacket2_i[41] renamedPacket2_i[40] renamedPacket2_i[39] renamedPacket2_i[38] 
+ renamedPacket2_i[37] renamedPacket2_i[36] renamedPacket2_i[35] renamedPacket2_i[34] 
+ renamedPacket2_i[33] renamedPacket2_i[32] renamedPacket2_i[31] renamedPacket2_i[30] 
+ renamedPacket2_i[29] renamedPacket2_i[28] renamedPacket2_i[27] renamedPacket2_i[26] 
+ renamedPacket2_i[25] renamedPacket2_i[24] renamedPacket2_i[23] renamedPacket2_i[22] 
+ renamedPacket2_i[21] renamedPacket2_i[20] renamedPacket2_i[19] renamedPacket2_i[18] 
+ renamedPacket2_i[17] renamedPacket2_i[16] renamedPacket2_i[15] renamedPacket2_i[14] 
+ renamedPacket2_i[13] renamedPacket2_i[12] renamedPacket2_i[11] renamedPacket2_i[10] 
+ renamedPacket2_i[9] renamedPacket2_i[8] renamedPacket2_i[7] renamedPacket2_i[6] 
+ renamedPacket2_i[5] renamedPacket2_i[4] renamedPacket2_i[3] renamedPacket2_i[2] 
+ renamedPacket2_i[1] renamedPacket2_i[0] renamedPacket3_i[144] renamedPacket3_i[143] 
+ renamedPacket3_i[142] renamedPacket3_i[141] renamedPacket3_i[140] renamedPacket3_i[139] 
+ renamedPacket3_i[138] renamedPacket3_i[137] renamedPacket3_i[136] renamedPacket3_i[135] 
+ renamedPacket3_i[134] renamedPacket3_i[133] renamedPacket3_i[132] renamedPacket3_i[131] 
+ renamedPacket3_i[130] renamedPacket3_i[129] renamedPacket3_i[128] renamedPacket3_i[127] 
+ renamedPacket3_i[126] renamedPacket3_i[125] renamedPacket3_i[124] renamedPacket3_i[123] 
+ renamedPacket3_i[122] renamedPacket3_i[121] renamedPacket3_i[120] renamedPacket3_i[119] 
+ renamedPacket3_i[118] renamedPacket3_i[117] renamedPacket3_i[116] renamedPacket3_i[115] 
+ renamedPacket3_i[114] renamedPacket3_i[113] renamedPacket3_i[112] renamedPacket3_i[111] 
+ renamedPacket3_i[110] renamedPacket3_i[109] renamedPacket3_i[108] renamedPacket3_i[107] 
+ renamedPacket3_i[106] renamedPacket3_i[105] renamedPacket3_i[104] renamedPacket3_i[103] 
+ renamedPacket3_i[102] renamedPacket3_i[101] renamedPacket3_i[100] renamedPacket3_i[99] 
+ renamedPacket3_i[98] renamedPacket3_i[97] renamedPacket3_i[96] renamedPacket3_i[95] 
+ renamedPacket3_i[94] renamedPacket3_i[93] renamedPacket3_i[92] renamedPacket3_i[91] 
+ renamedPacket3_i[90] renamedPacket3_i[89] renamedPacket3_i[88] renamedPacket3_i[87] 
+ renamedPacket3_i[86] renamedPacket3_i[85] renamedPacket3_i[84] renamedPacket3_i[83] 
+ renamedPacket3_i[82] renamedPacket3_i[81] renamedPacket3_i[80] renamedPacket3_i[79] 
+ renamedPacket3_i[78] renamedPacket3_i[77] renamedPacket3_i[76] renamedPacket3_i[75] 
+ renamedPacket3_i[74] renamedPacket3_i[73] renamedPacket3_i[72] renamedPacket3_i[71] 
+ renamedPacket3_i[70] renamedPacket3_i[69] renamedPacket3_i[68] renamedPacket3_i[67] 
+ renamedPacket3_i[66] renamedPacket3_i[65] renamedPacket3_i[64] renamedPacket3_i[63] 
+ renamedPacket3_i[62] renamedPacket3_i[61] renamedPacket3_i[60] renamedPacket3_i[59] 
+ renamedPacket3_i[58] renamedPacket3_i[57] renamedPacket3_i[56] renamedPacket3_i[55] 
+ renamedPacket3_i[54] renamedPacket3_i[53] renamedPacket3_i[52] renamedPacket3_i[51] 
+ renamedPacket3_i[50] renamedPacket3_i[49] renamedPacket3_i[48] renamedPacket3_i[47] 
+ renamedPacket3_i[46] renamedPacket3_i[45] renamedPacket3_i[44] renamedPacket3_i[43] 
+ renamedPacket3_i[42] renamedPacket3_i[41] renamedPacket3_i[40] renamedPacket3_i[39] 
+ renamedPacket3_i[38] renamedPacket3_i[37] renamedPacket3_i[36] renamedPacket3_i[35] 
+ renamedPacket3_i[34] renamedPacket3_i[33] renamedPacket3_i[32] renamedPacket3_i[31] 
+ renamedPacket3_i[30] renamedPacket3_i[29] renamedPacket3_i[28] renamedPacket3_i[27] 
+ renamedPacket3_i[26] renamedPacket3_i[25] renamedPacket3_i[24] renamedPacket3_i[23] 
+ renamedPacket3_i[22] renamedPacket3_i[21] renamedPacket3_i[20] renamedPacket3_i[19] 
+ renamedPacket3_i[18] renamedPacket3_i[17] renamedPacket3_i[16] renamedPacket3_i[15] 
+ renamedPacket3_i[14] renamedPacket3_i[13] renamedPacket3_i[12] renamedPacket3_i[11] 
+ renamedPacket3_i[10] renamedPacket3_i[9] renamedPacket3_i[8] renamedPacket3_i[7] 
+ renamedPacket3_i[6] renamedPacket3_i[5] renamedPacket3_i[4] renamedPacket3_i[3] 
+ renamedPacket3_i[2] renamedPacket3_i[1] renamedPacket3_i[0] updatedBranchMask0_i[3] 
+ updatedBranchMask0_i[2] updatedBranchMask0_i[1] updatedBranchMask0_i[0] updatedBranchMask1_i[3] 
+ updatedBranchMask1_i[2] updatedBranchMask1_i[1] updatedBranchMask1_i[0] updatedBranchMask2_i[3] 
+ updatedBranchMask2_i[2] updatedBranchMask2_i[1] updatedBranchMask2_i[0] updatedBranchMask3_i[3] 
+ updatedBranchMask3_i[2] updatedBranchMask3_i[1] updatedBranchMask3_i[0] renamedPacket0_o[144] 
+ renamedPacket0_o[143] renamedPacket0_o[142] renamedPacket0_o[141] renamedPacket0_o[140] 
+ renamedPacket0_o[139] renamedPacket0_o[138] renamedPacket0_o[137] renamedPacket0_o[136] 
+ renamedPacket0_o[135] renamedPacket0_o[134] renamedPacket0_o[133] renamedPacket0_o[132] 
+ renamedPacket0_o[131] renamedPacket0_o[130] renamedPacket0_o[129] renamedPacket0_o[128] 
+ renamedPacket0_o[127] renamedPacket0_o[126] renamedPacket0_o[125] renamedPacket0_o[124] 
+ renamedPacket0_o[123] renamedPacket0_o[122] renamedPacket0_o[121] renamedPacket0_o[120] 
+ renamedPacket0_o[119] renamedPacket0_o[118] renamedPacket0_o[117] renamedPacket0_o[116] 
+ renamedPacket0_o[115] renamedPacket0_o[114] renamedPacket0_o[113] renamedPacket0_o[112] 
+ renamedPacket0_o[111] renamedPacket0_o[110] renamedPacket0_o[109] renamedPacket0_o[108] 
+ renamedPacket0_o[107] renamedPacket0_o[106] renamedPacket0_o[105] renamedPacket0_o[104] 
+ renamedPacket0_o[103] renamedPacket0_o[102] renamedPacket0_o[101] renamedPacket0_o[100] 
+ renamedPacket0_o[99] renamedPacket0_o[98] renamedPacket0_o[97] renamedPacket0_o[96] 
+ renamedPacket0_o[95] renamedPacket0_o[94] renamedPacket0_o[93] renamedPacket0_o[92] 
+ renamedPacket0_o[91] renamedPacket0_o[90] renamedPacket0_o[89] renamedPacket0_o[88] 
+ renamedPacket0_o[87] renamedPacket0_o[86] renamedPacket0_o[85] renamedPacket0_o[84] 
+ renamedPacket0_o[83] renamedPacket0_o[82] renamedPacket0_o[81] renamedPacket0_o[80] 
+ renamedPacket0_o[79] renamedPacket0_o[78] renamedPacket0_o[77] renamedPacket0_o[76] 
+ renamedPacket0_o[75] renamedPacket0_o[74] renamedPacket0_o[73] renamedPacket0_o[72] 
+ renamedPacket0_o[71] renamedPacket0_o[70] renamedPacket0_o[69] renamedPacket0_o[68] 
+ renamedPacket0_o[67] renamedPacket0_o[66] renamedPacket0_o[65] renamedPacket0_o[64] 
+ renamedPacket0_o[63] renamedPacket0_o[62] renamedPacket0_o[61] renamedPacket0_o[60] 
+ renamedPacket0_o[59] renamedPacket0_o[58] renamedPacket0_o[57] renamedPacket0_o[56] 
+ renamedPacket0_o[55] renamedPacket0_o[54] renamedPacket0_o[53] renamedPacket0_o[52] 
+ renamedPacket0_o[51] renamedPacket0_o[50] renamedPacket0_o[49] renamedPacket0_o[48] 
+ renamedPacket0_o[47] renamedPacket0_o[46] renamedPacket0_o[45] renamedPacket0_o[44] 
+ renamedPacket0_o[43] renamedPacket0_o[42] renamedPacket0_o[41] renamedPacket0_o[40] 
+ renamedPacket0_o[39] renamedPacket0_o[38] renamedPacket0_o[37] renamedPacket0_o[36] 
+ renamedPacket0_o[35] renamedPacket0_o[34] renamedPacket0_o[33] renamedPacket0_o[32] 
+ renamedPacket0_o[31] renamedPacket0_o[30] renamedPacket0_o[29] renamedPacket0_o[28] 
+ renamedPacket0_o[27] renamedPacket0_o[26] renamedPacket0_o[25] renamedPacket0_o[24] 
+ renamedPacket0_o[23] renamedPacket0_o[22] renamedPacket0_o[21] renamedPacket0_o[20] 
+ renamedPacket0_o[19] renamedPacket0_o[18] renamedPacket0_o[17] renamedPacket0_o[16] 
+ renamedPacket0_o[15] renamedPacket0_o[14] renamedPacket0_o[13] renamedPacket0_o[12] 
+ renamedPacket0_o[11] renamedPacket0_o[10] renamedPacket0_o[9] renamedPacket0_o[8] 
+ renamedPacket0_o[7] renamedPacket0_o[6] renamedPacket0_o[5] renamedPacket0_o[4] 
+ renamedPacket0_o[3] renamedPacket0_o[2] renamedPacket0_o[1] renamedPacket0_o[0] 
+ renamedPacket1_o[144] renamedPacket1_o[143] renamedPacket1_o[142] renamedPacket1_o[141] 
+ renamedPacket1_o[140] renamedPacket1_o[139] renamedPacket1_o[138] renamedPacket1_o[137] 
+ renamedPacket1_o[136] renamedPacket1_o[135] renamedPacket1_o[134] renamedPacket1_o[133] 
+ renamedPacket1_o[132] renamedPacket1_o[131] renamedPacket1_o[130] renamedPacket1_o[129] 
+ renamedPacket1_o[128] renamedPacket1_o[127] renamedPacket1_o[126] renamedPacket1_o[125] 
+ renamedPacket1_o[124] renamedPacket1_o[123] renamedPacket1_o[122] renamedPacket1_o[121] 
+ renamedPacket1_o[120] renamedPacket1_o[119] renamedPacket1_o[118] renamedPacket1_o[117] 
+ renamedPacket1_o[116] renamedPacket1_o[115] renamedPacket1_o[114] renamedPacket1_o[113] 
+ renamedPacket1_o[112] renamedPacket1_o[111] renamedPacket1_o[110] renamedPacket1_o[109] 
+ renamedPacket1_o[108] renamedPacket1_o[107] renamedPacket1_o[106] renamedPacket1_o[105] 
+ renamedPacket1_o[104] renamedPacket1_o[103] renamedPacket1_o[102] renamedPacket1_o[101] 
+ renamedPacket1_o[100] renamedPacket1_o[99] renamedPacket1_o[98] renamedPacket1_o[97] 
+ renamedPacket1_o[96] renamedPacket1_o[95] renamedPacket1_o[94] renamedPacket1_o[93] 
+ renamedPacket1_o[92] renamedPacket1_o[91] renamedPacket1_o[90] renamedPacket1_o[89] 
+ renamedPacket1_o[88] renamedPacket1_o[87] renamedPacket1_o[86] renamedPacket1_o[85] 
+ renamedPacket1_o[84] renamedPacket1_o[83] renamedPacket1_o[82] renamedPacket1_o[81] 
+ renamedPacket1_o[80] renamedPacket1_o[79] renamedPacket1_o[78] renamedPacket1_o[77] 
+ renamedPacket1_o[76] renamedPacket1_o[75] renamedPacket1_o[74] renamedPacket1_o[73] 
+ renamedPacket1_o[72] renamedPacket1_o[71] renamedPacket1_o[70] renamedPacket1_o[69] 
+ renamedPacket1_o[68] renamedPacket1_o[67] renamedPacket1_o[66] renamedPacket1_o[65] 
+ renamedPacket1_o[64] renamedPacket1_o[63] renamedPacket1_o[62] renamedPacket1_o[61] 
+ renamedPacket1_o[60] renamedPacket1_o[59] renamedPacket1_o[58] renamedPacket1_o[57] 
+ renamedPacket1_o[56] renamedPacket1_o[55] renamedPacket1_o[54] renamedPacket1_o[53] 
+ renamedPacket1_o[52] renamedPacket1_o[51] renamedPacket1_o[50] renamedPacket1_o[49] 
+ renamedPacket1_o[48] renamedPacket1_o[47] renamedPacket1_o[46] renamedPacket1_o[45] 
+ renamedPacket1_o[44] renamedPacket1_o[43] renamedPacket1_o[42] renamedPacket1_o[41] 
+ renamedPacket1_o[40] renamedPacket1_o[39] renamedPacket1_o[38] renamedPacket1_o[37] 
+ renamedPacket1_o[36] renamedPacket1_o[35] renamedPacket1_o[34] renamedPacket1_o[33] 
+ renamedPacket1_o[32] renamedPacket1_o[31] renamedPacket1_o[30] renamedPacket1_o[29] 
+ renamedPacket1_o[28] renamedPacket1_o[27] renamedPacket1_o[26] renamedPacket1_o[25] 
+ renamedPacket1_o[24] renamedPacket1_o[23] renamedPacket1_o[22] renamedPacket1_o[21] 
+ renamedPacket1_o[20] renamedPacket1_o[19] renamedPacket1_o[18] renamedPacket1_o[17] 
+ renamedPacket1_o[16] renamedPacket1_o[15] renamedPacket1_o[14] renamedPacket1_o[13] 
+ renamedPacket1_o[12] renamedPacket1_o[11] renamedPacket1_o[10] renamedPacket1_o[9] 
+ renamedPacket1_o[8] renamedPacket1_o[7] renamedPacket1_o[6] renamedPacket1_o[5] 
+ renamedPacket1_o[4] renamedPacket1_o[3] renamedPacket1_o[2] renamedPacket1_o[1] 
+ renamedPacket1_o[0] renamedPacket2_o[144] renamedPacket2_o[143] renamedPacket2_o[142] 
+ renamedPacket2_o[141] renamedPacket2_o[140] renamedPacket2_o[139] renamedPacket2_o[138] 
+ renamedPacket2_o[137] renamedPacket2_o[136] renamedPacket2_o[135] renamedPacket2_o[134] 
+ renamedPacket2_o[133] renamedPacket2_o[132] renamedPacket2_o[131] renamedPacket2_o[130] 
+ renamedPacket2_o[129] renamedPacket2_o[128] renamedPacket2_o[127] renamedPacket2_o[126] 
+ renamedPacket2_o[125] renamedPacket2_o[124] renamedPacket2_o[123] renamedPacket2_o[122] 
+ renamedPacket2_o[121] renamedPacket2_o[120] renamedPacket2_o[119] renamedPacket2_o[118] 
+ renamedPacket2_o[117] renamedPacket2_o[116] renamedPacket2_o[115] renamedPacket2_o[114] 
+ renamedPacket2_o[113] renamedPacket2_o[112] renamedPacket2_o[111] renamedPacket2_o[110] 
+ renamedPacket2_o[109] renamedPacket2_o[108] renamedPacket2_o[107] renamedPacket2_o[106] 
+ renamedPacket2_o[105] renamedPacket2_o[104] renamedPacket2_o[103] renamedPacket2_o[102] 
+ renamedPacket2_o[101] renamedPacket2_o[100] renamedPacket2_o[99] renamedPacket2_o[98] 
+ renamedPacket2_o[97] renamedPacket2_o[96] renamedPacket2_o[95] renamedPacket2_o[94] 
+ renamedPacket2_o[93] renamedPacket2_o[92] renamedPacket2_o[91] renamedPacket2_o[90] 
+ renamedPacket2_o[89] renamedPacket2_o[88] renamedPacket2_o[87] renamedPacket2_o[86] 
+ renamedPacket2_o[85] renamedPacket2_o[84] renamedPacket2_o[83] renamedPacket2_o[82] 
+ renamedPacket2_o[81] renamedPacket2_o[80] renamedPacket2_o[79] renamedPacket2_o[78] 
+ renamedPacket2_o[77] renamedPacket2_o[76] renamedPacket2_o[75] renamedPacket2_o[74] 
+ renamedPacket2_o[73] renamedPacket2_o[72] renamedPacket2_o[71] renamedPacket2_o[70] 
+ renamedPacket2_o[69] renamedPacket2_o[68] renamedPacket2_o[67] renamedPacket2_o[66] 
+ renamedPacket2_o[65] renamedPacket2_o[64] renamedPacket2_o[63] renamedPacket2_o[62] 
+ renamedPacket2_o[61] renamedPacket2_o[60] renamedPacket2_o[59] renamedPacket2_o[58] 
+ renamedPacket2_o[57] renamedPacket2_o[56] renamedPacket2_o[55] renamedPacket2_o[54] 
+ renamedPacket2_o[53] renamedPacket2_o[52] renamedPacket2_o[51] renamedPacket2_o[50] 
+ renamedPacket2_o[49] renamedPacket2_o[48] renamedPacket2_o[47] renamedPacket2_o[46] 
+ renamedPacket2_o[45] renamedPacket2_o[44] renamedPacket2_o[43] renamedPacket2_o[42] 
+ renamedPacket2_o[41] renamedPacket2_o[40] renamedPacket2_o[39] renamedPacket2_o[38] 
+ renamedPacket2_o[37] renamedPacket2_o[36] renamedPacket2_o[35] renamedPacket2_o[34] 
+ renamedPacket2_o[33] renamedPacket2_o[32] renamedPacket2_o[31] renamedPacket2_o[30] 
+ renamedPacket2_o[29] renamedPacket2_o[28] renamedPacket2_o[27] renamedPacket2_o[26] 
+ renamedPacket2_o[25] renamedPacket2_o[24] renamedPacket2_o[23] renamedPacket2_o[22] 
+ renamedPacket2_o[21] renamedPacket2_o[20] renamedPacket2_o[19] renamedPacket2_o[18] 
+ renamedPacket2_o[17] renamedPacket2_o[16] renamedPacket2_o[15] renamedPacket2_o[14] 
+ renamedPacket2_o[13] renamedPacket2_o[12] renamedPacket2_o[11] renamedPacket2_o[10] 
+ renamedPacket2_o[9] renamedPacket2_o[8] renamedPacket2_o[7] renamedPacket2_o[6] 
+ renamedPacket2_o[5] renamedPacket2_o[4] renamedPacket2_o[3] renamedPacket2_o[2] 
+ renamedPacket2_o[1] renamedPacket2_o[0] renamedPacket3_o[144] renamedPacket3_o[143] 
+ renamedPacket3_o[142] renamedPacket3_o[141] renamedPacket3_o[140] renamedPacket3_o[139] 
+ renamedPacket3_o[138] renamedPacket3_o[137] renamedPacket3_o[136] renamedPacket3_o[135] 
+ renamedPacket3_o[134] renamedPacket3_o[133] renamedPacket3_o[132] renamedPacket3_o[131] 
+ renamedPacket3_o[130] renamedPacket3_o[129] renamedPacket3_o[128] renamedPacket3_o[127] 
+ renamedPacket3_o[126] renamedPacket3_o[125] renamedPacket3_o[124] renamedPacket3_o[123] 
+ renamedPacket3_o[122] renamedPacket3_o[121] renamedPacket3_o[120] renamedPacket3_o[119] 
+ renamedPacket3_o[118] renamedPacket3_o[117] renamedPacket3_o[116] renamedPacket3_o[115] 
+ renamedPacket3_o[114] renamedPacket3_o[113] renamedPacket3_o[112] renamedPacket3_o[111] 
+ renamedPacket3_o[110] renamedPacket3_o[109] renamedPacket3_o[108] renamedPacket3_o[107] 
+ renamedPacket3_o[106] renamedPacket3_o[105] renamedPacket3_o[104] renamedPacket3_o[103] 
+ renamedPacket3_o[102] renamedPacket3_o[101] renamedPacket3_o[100] renamedPacket3_o[99] 
+ renamedPacket3_o[98] renamedPacket3_o[97] renamedPacket3_o[96] renamedPacket3_o[95] 
+ renamedPacket3_o[94] renamedPacket3_o[93] renamedPacket3_o[92] renamedPacket3_o[91] 
+ renamedPacket3_o[90] renamedPacket3_o[89] renamedPacket3_o[88] renamedPacket3_o[87] 
+ renamedPacket3_o[86] renamedPacket3_o[85] renamedPacket3_o[84] renamedPacket3_o[83] 
+ renamedPacket3_o[82] renamedPacket3_o[81] renamedPacket3_o[80] renamedPacket3_o[79] 
+ renamedPacket3_o[78] renamedPacket3_o[77] renamedPacket3_o[76] renamedPacket3_o[75] 
+ renamedPacket3_o[74] renamedPacket3_o[73] renamedPacket3_o[72] renamedPacket3_o[71] 
+ renamedPacket3_o[70] renamedPacket3_o[69] renamedPacket3_o[68] renamedPacket3_o[67] 
+ renamedPacket3_o[66] renamedPacket3_o[65] renamedPacket3_o[64] renamedPacket3_o[63] 
+ renamedPacket3_o[62] renamedPacket3_o[61] renamedPacket3_o[60] renamedPacket3_o[59] 
+ renamedPacket3_o[58] renamedPacket3_o[57] renamedPacket3_o[56] renamedPacket3_o[55] 
+ renamedPacket3_o[54] renamedPacket3_o[53] renamedPacket3_o[52] renamedPacket3_o[51] 
+ renamedPacket3_o[50] renamedPacket3_o[49] renamedPacket3_o[48] renamedPacket3_o[47] 
+ renamedPacket3_o[46] renamedPacket3_o[45] renamedPacket3_o[44] renamedPacket3_o[43] 
+ renamedPacket3_o[42] renamedPacket3_o[41] renamedPacket3_o[40] renamedPacket3_o[39] 
+ renamedPacket3_o[38] renamedPacket3_o[37] renamedPacket3_o[36] renamedPacket3_o[35] 
+ renamedPacket3_o[34] renamedPacket3_o[33] renamedPacket3_o[32] renamedPacket3_o[31] 
+ renamedPacket3_o[30] renamedPacket3_o[29] renamedPacket3_o[28] renamedPacket3_o[27] 
+ renamedPacket3_o[26] renamedPacket3_o[25] renamedPacket3_o[24] renamedPacket3_o[23] 
+ renamedPacket3_o[22] renamedPacket3_o[21] renamedPacket3_o[20] renamedPacket3_o[19] 
+ renamedPacket3_o[18] renamedPacket3_o[17] renamedPacket3_o[16] renamedPacket3_o[15] 
+ renamedPacket3_o[14] renamedPacket3_o[13] renamedPacket3_o[12] renamedPacket3_o[11] 
+ renamedPacket3_o[10] renamedPacket3_o[9] renamedPacket3_o[8] renamedPacket3_o[7] 
+ renamedPacket3_o[6] renamedPacket3_o[5] renamedPacket3_o[4] renamedPacket3_o[3] 
+ renamedPacket3_o[2] renamedPacket3_o[1] renamedPacket3_o[0] renameReady_o 
XU3022 n3 n3021 INVX1_RVT 
XU3021 n2962 n3020 INVX1_RVT 
XU3020 n2962 n3019 INVX1_RVT 
XU3019 n2962 n3018 INVX1_RVT 
XU3018 n2961 n3017 INVX1_RVT 
XU3017 n2961 n3016 INVX1_RVT 
XU3016 n2961 n3015 INVX1_RVT 
XU3015 n2960 n3014 INVX1_RVT 
XU3014 n2960 n3013 INVX1_RVT 
XU3013 n2960 n3012 INVX1_RVT 
XU3012 n3012 n3011 INVX1_RVT 
XU3011 n3012 n3010 INVX1_RVT 
XU3010 n3012 n3009 INVX1_RVT 
XU3009 n3013 n3008 INVX1_RVT 
XU3008 n3013 n3007 INVX1_RVT 
XU3007 n3013 n3006 INVX1_RVT 
XU3006 n3014 n3005 INVX1_RVT 
XU3005 n3014 n3004 INVX1_RVT 
XU3004 n3014 n3003 INVX1_RVT 
XU3003 n3015 n3002 INVX1_RVT 
XU3002 n3015 n3001 INVX1_RVT 
XU3001 n3015 n3000 INVX1_RVT 
XU3000 n3016 n2999 INVX1_RVT 
XU2999 n3016 n2998 INVX1_RVT 
XU2998 n3016 n2997 INVX1_RVT 
XU2997 n3017 n2996 INVX1_RVT 
XU2996 n3017 n2995 INVX1_RVT 
XU2995 n3017 n2994 INVX1_RVT 
XU2994 n3018 n2993 INVX1_RVT 
XU2993 n3018 n2992 INVX1_RVT 
XU2992 n3018 n2991 INVX1_RVT 
XU2991 n3019 n2990 INVX1_RVT 
XU2990 n3019 n2989 INVX1_RVT 
XU2989 n3019 n2988 INVX1_RVT 
XU2988 n3020 n2987 INVX1_RVT 
XU2987 n3020 n2986 INVX1_RVT 
XU2986 n3020 n2985 INVX1_RVT 
XU2985 n1165 n2984 INVX1_RVT 
XU2984 n3021 n2983 INVX1_RVT 
XU2983 n3021 n2982 INVX1_RVT 
XU2982 n2963 n2981 INVX1_RVT 
XU2981 n3021 n2980 INVX1_RVT 
XU2980 n3021 n2979 INVX1_RVT 
XU2979 n3021 n2978 INVX1_RVT 
XU2978 n3021 n2977 INVX1_RVT 
XU2977 n3021 n2976 INVX1_RVT 
XU2976 n3021 n2975 INVX1_RVT 
XU2975 n3021 n2974 INVX1_RVT 
XU2974 n3021 n2973 INVX1_RVT 
XU2973 n1165 n2972 INVX1_RVT 
XU2972 n1165 n2971 INVX1_RVT 
XU2971 n1165 n2970 INVX1_RVT 
XU2970 n3021 n2969 INVX1_RVT 
XU2969 n3021 n2968 INVX1_RVT 
XU2968 n3021 n2967 INVX1_RVT 
XU2967 n3021 n2966 INVX1_RVT 
XU2966 n3021 n2965 INVX1_RVT 
XU2965 n3021 n2964 INVX1_RVT 
XU2964 n3 n2963 INVX1_RVT 
XU2963 n2963 n2962 INVX1_RVT 
XU2962 n2963 n2961 INVX1_RVT 
XU2961 n2963 n2960 INVX1_RVT 
XU2960 n2913 n2959 INVX1_RVT 
XU2959 n2912 n2958 INVX1_RVT 
XU2958 n2912 n2957 INVX1_RVT 
XU2957 n2912 n2956 INVX1_RVT 
XU2956 n2912 n2955 INVX1_RVT 
XU2955 n2912 n2954 INVX1_RVT 
XU2954 n2954 n2953 INVX1_RVT 
XU2953 n2954 n2952 INVX1_RVT 
XU2952 n2954 n2951 INVX1_RVT 
XU2951 n2956 n2950 INVX1_RVT 
XU2950 n2957 n2949 INVX1_RVT 
XU2949 n2958 n2948 INVX1_RVT 
XU2948 n2956 n2947 INVX1_RVT 
XU2947 n2954 n2946 INVX1_RVT 
XU2946 n2956 n2945 INVX1_RVT 
XU2945 n2956 n2944 INVX1_RVT 
XU2944 n2954 n2943 INVX1_RVT 
XU2943 n2955 n2942 INVX1_RVT 
XU2942 n2955 n2941 INVX1_RVT 
XU2941 n2955 n2940 INVX1_RVT 
XU2940 n2955 n2939 INVX1_RVT 
XU2939 n2957 n2938 INVX1_RVT 
XU2938 n2958 n2937 INVX1_RVT 
XU2937 n2954 n2936 INVX1_RVT 
XU2936 n2955 n2935 INVX1_RVT 
XU2935 n2957 n2934 INVX1_RVT 
XU2934 n2958 n2933 INVX1_RVT 
XU2933 n2955 n2932 INVX1_RVT 
XU2932 n2955 n2931 INVX1_RVT 
XU2931 n2955 n2930 INVX1_RVT 
XU2930 n2956 n2929 INVX1_RVT 
XU2929 n2956 n2928 INVX1_RVT 
XU2928 n2956 n2927 INVX1_RVT 
XU2927 n2957 n2926 INVX1_RVT 
XU2926 n2958 n2925 INVX1_RVT 
XU2925 n2954 n2924 INVX1_RVT 
XU2924 n2957 n2923 INVX1_RVT 
XU2923 n2957 n2922 INVX1_RVT 
XU2922 n2957 n2921 INVX1_RVT 
XU2921 n2958 n2920 INVX1_RVT 
XU2920 n2958 n2919 INVX1_RVT 
XU2919 n2958 n2918 INVX1_RVT 
XU2918 n2959 n2917 INVX1_RVT 
XU2917 n2959 n2916 INVX1_RVT 
XU2916 n2959 n2915 INVX1_RVT 
XU2915 n4 n2914 INVX1_RVT 
XU2914 n2914 n2913 INVX1_RVT 
XU2913 n2914 n2912 INVX1_RVT 
XU2912 n2910 n2911 INVX1_RVT 
XU2911 n1749 n2910 INVX1_RVT 
XU2910 n2908 n2909 INVX1_RVT 
XU2909 n1748 n2908 INVX1_RVT 
XU2908 n2906 n2907 INVX1_RVT 
XU2907 n1747 n2906 INVX1_RVT 
XU2906 n2904 n2905 INVX1_RVT 
XU2905 n1746 n2904 INVX1_RVT 
XU2904 n2902 n2903 INVX1_RVT 
XU2903 n1745 n2902 INVX1_RVT 
XU2902 n2900 n2901 INVX1_RVT 
XU2901 n1744 n2900 INVX1_RVT 
XU2900 n2898 n2899 INVX1_RVT 
XU2899 n1743 n2898 INVX1_RVT 
XU2898 n2896 n2897 INVX1_RVT 
XU2897 n1742 n2896 INVX1_RVT 