* Nettran: AMD.64 Release B-2008.09.SP5.HF2.26004 2012/07/19
* Created:  6/23/2016  12:27
* Options: -verilog netlist.v -outName netlist.sp -verilog-b1 VDD -verilog-b0 GND -outType spice 

.GLOBAL VDD GND 

.SUBCKT InstBufRename reset clk flush_i stall_i instBufferReady_i decodedPacket0_i[125] 
+ decodedPacket0_i[124] decodedPacket0_i[123] decodedPacket0_i[122] decodedPacket0_i[121] 
+ decodedPacket0_i[120] decodedPacket0_i[119] decodedPacket0_i[118] decodedPacket0_i[117] 
+ decodedPacket0_i[116] decodedPacket0_i[115] decodedPacket0_i[114] decodedPacket0_i[113] 
+ decodedPacket0_i[112] decodedPacket0_i[111] decodedPacket0_i[110] decodedPacket0_i[109] 
+ decodedPacket0_i[108] decodedPacket0_i[107] decodedPacket0_i[106] decodedPacket0_i[105] 
+ decodedPacket0_i[104] decodedPacket0_i[103] decodedPacket0_i[102] decodedPacket0_i[101] 
+ decodedPacket0_i[100] decodedPacket0_i[99] decodedPacket0_i[98] decodedPacket0_i[97] 
+ decodedPacket0_i[96] decodedPacket0_i[95] decodedPacket0_i[94] decodedPacket0_i[93] 
+ decodedPacket0_i[92] decodedPacket0_i[91] decodedPacket0_i[90] decodedPacket0_i[89] 
+ decodedPacket0_i[88] decodedPacket0_i[87] decodedPacket0_i[86] decodedPacket0_i[85] 
+ decodedPacket0_i[84] decodedPacket0_i[83] decodedPacket0_i[82] decodedPacket0_i[81] 
+ decodedPacket0_i[80] decodedPacket0_i[79] decodedPacket0_i[78] decodedPacket0_i[77] 
+ decodedPacket0_i[76] decodedPacket0_i[75] decodedPacket0_i[74] decodedPacket0_i[73] 
+ decodedPacket0_i[72] decodedPacket0_i[71] decodedPacket0_i[70] decodedPacket0_i[69] 
+ decodedPacket0_i[68] decodedPacket0_i[67] decodedPacket0_i[66] decodedPacket0_i[65] 
+ decodedPacket0_i[64] decodedPacket0_i[63] decodedPacket0_i[62] decodedPacket0_i[61] 
+ decodedPacket0_i[60] decodedPacket0_i[59] decodedPacket0_i[58] decodedPacket0_i[57] 
+ decodedPacket0_i[56] decodedPacket0_i[55] decodedPacket0_i[54] decodedPacket0_i[53] 
+ decodedPacket0_i[52] decodedPacket0_i[51] decodedPacket0_i[50] decodedPacket0_i[49] 
+ decodedPacket0_i[48] decodedPacket0_i[47] decodedPacket0_i[46] decodedPacket0_i[45] 
+ decodedPacket0_i[44] decodedPacket0_i[43] decodedPacket0_i[42] decodedPacket0_i[41] 
+ decodedPacket0_i[40] decodedPacket0_i[39] decodedPacket0_i[38] decodedPacket0_i[37] 
+ decodedPacket0_i[36] decodedPacket0_i[35] decodedPacket0_i[34] decodedPacket0_i[33] 
+ decodedPacket0_i[32] decodedPacket0_i[31] decodedPacket0_i[30] decodedPacket0_i[29] 
+ decodedPacket0_i[28] decodedPacket0_i[27] decodedPacket0_i[26] decodedPacket0_i[25] 
+ decodedPacket0_i[24] decodedPacket0_i[23] decodedPacket0_i[22] decodedPacket0_i[21] 
+ decodedPacket0_i[20] decodedPacket0_i[19] decodedPacket0_i[18] decodedPacket0_i[17] 
+ decodedPacket0_i[16] decodedPacket0_i[15] decodedPacket0_i[14] decodedPacket0_i[13] 
+ decodedPacket0_i[12] decodedPacket0_i[11] decodedPacket0_i[10] decodedPacket0_i[9] 
+ decodedPacket0_i[8] decodedPacket0_i[7] decodedPacket0_i[6] decodedPacket0_i[5] 
+ decodedPacket0_i[4] decodedPacket0_i[3] decodedPacket0_i[2] decodedPacket0_i[1] 
+ decodedPacket0_i[0] decodedPacket1_i[125] decodedPacket1_i[124] decodedPacket1_i[123] 
+ decodedPacket1_i[122] decodedPacket1_i[121] decodedPacket1_i[120] decodedPacket1_i[119] 
+ decodedPacket1_i[118] decodedPacket1_i[117] decodedPacket1_i[116] decodedPacket1_i[115] 
+ decodedPacket1_i[114] decodedPacket1_i[113] decodedPacket1_i[112] decodedPacket1_i[111] 
+ decodedPacket1_i[110] decodedPacket1_i[109] decodedPacket1_i[108] decodedPacket1_i[107] 
+ decodedPacket1_i[106] decodedPacket1_i[105] decodedPacket1_i[104] decodedPacket1_i[103] 
+ decodedPacket1_i[102] decodedPacket1_i[101] decodedPacket1_i[100] decodedPacket1_i[99] 
+ decodedPacket1_i[98] decodedPacket1_i[97] decodedPacket1_i[96] decodedPacket1_i[95] 
+ decodedPacket1_i[94] decodedPacket1_i[93] decodedPacket1_i[92] decodedPacket1_i[91] 
+ decodedPacket1_i[90] decodedPacket1_i[89] decodedPacket1_i[88] decodedPacket1_i[87] 
+ decodedPacket1_i[86] decodedPacket1_i[85] decodedPacket1_i[84] decodedPacket1_i[83] 
+ decodedPacket1_i[82] decodedPacket1_i[81] decodedPacket1_i[80] decodedPacket1_i[79] 
+ decodedPacket1_i[78] decodedPacket1_i[77] decodedPacket1_i[76] decodedPacket1_i[75] 
+ decodedPacket1_i[74] decodedPacket1_i[73] decodedPacket1_i[72] decodedPacket1_i[71] 
+ decodedPacket1_i[70] decodedPacket1_i[69] decodedPacket1_i[68] decodedPacket1_i[67] 
+ decodedPacket1_i[66] decodedPacket1_i[65] decodedPacket1_i[64] decodedPacket1_i[63] 
+ decodedPacket1_i[62] decodedPacket1_i[61] decodedPacket1_i[60] decodedPacket1_i[59] 
+ decodedPacket1_i[58] decodedPacket1_i[57] decodedPacket1_i[56] decodedPacket1_i[55] 
+ decodedPacket1_i[54] decodedPacket1_i[53] decodedPacket1_i[52] decodedPacket1_i[51] 
+ decodedPacket1_i[50] decodedPacket1_i[49] decodedPacket1_i[48] decodedPacket1_i[47] 
+ decodedPacket1_i[46] decodedPacket1_i[45] decodedPacket1_i[44] decodedPacket1_i[43] 
+ decodedPacket1_i[42] decodedPacket1_i[41] decodedPacket1_i[40] decodedPacket1_i[39] 
+ decodedPacket1_i[38] decodedPacket1_i[37] decodedPacket1_i[36] decodedPacket1_i[35] 
+ decodedPacket1_i[34] decodedPacket1_i[33] decodedPacket1_i[32] decodedPacket1_i[31] 
+ decodedPacket1_i[30] decodedPacket1_i[29] decodedPacket1_i[28] decodedPacket1_i[27] 
+ decodedPacket1_i[26] decodedPacket1_i[25] decodedPacket1_i[24] decodedPacket1_i[23] 
+ decodedPacket1_i[22] decodedPacket1_i[21] decodedPacket1_i[20] decodedPacket1_i[19] 
+ decodedPacket1_i[18] decodedPacket1_i[17] decodedPacket1_i[16] decodedPacket1_i[15] 
+ decodedPacket1_i[14] decodedPacket1_i[13] decodedPacket1_i[12] decodedPacket1_i[11] 
+ decodedPacket1_i[10] decodedPacket1_i[9] decodedPacket1_i[8] decodedPacket1_i[7] 
+ decodedPacket1_i[6] decodedPacket1_i[5] decodedPacket1_i[4] decodedPacket1_i[3] 
+ decodedPacket1_i[2] decodedPacket1_i[1] decodedPacket1_i[0] decodedPacket2_i[125] 
+ decodedPacket2_i[124] decodedPacket2_i[123] decodedPacket2_i[122] decodedPacket2_i[121] 
+ decodedPacket2_i[120] decodedPacket2_i[119] decodedPacket2_i[118] decodedPacket2_i[117] 
+ decodedPacket2_i[116] decodedPacket2_i[115] decodedPacket2_i[114] decodedPacket2_i[113] 
+ decodedPacket2_i[112] decodedPacket2_i[111] decodedPacket2_i[110] decodedPacket2_i[109] 
+ decodedPacket2_i[108] decodedPacket2_i[107] decodedPacket2_i[106] decodedPacket2_i[105] 
+ decodedPacket2_i[104] decodedPacket2_i[103] decodedPacket2_i[102] decodedPacket2_i[101] 
+ decodedPacket2_i[100] decodedPacket2_i[99] decodedPacket2_i[98] decodedPacket2_i[97] 
+ decodedPacket2_i[96] decodedPacket2_i[95] decodedPacket2_i[94] decodedPacket2_i[93] 
+ decodedPacket2_i[92] decodedPacket2_i[91] decodedPacket2_i[90] decodedPacket2_i[89] 
+ decodedPacket2_i[88] decodedPacket2_i[87] decodedPacket2_i[86] decodedPacket2_i[85] 
+ decodedPacket2_i[84] decodedPacket2_i[83] decodedPacket2_i[82] decodedPacket2_i[81] 
+ decodedPacket2_i[80] decodedPacket2_i[79] decodedPacket2_i[78] decodedPacket2_i[77] 
+ decodedPacket2_i[76] decodedPacket2_i[75] decodedPacket2_i[74] decodedPacket2_i[73] 
+ decodedPacket2_i[72] decodedPacket2_i[71] decodedPacket2_i[70] decodedPacket2_i[69] 
+ decodedPacket2_i[68] decodedPacket2_i[67] decodedPacket2_i[66] decodedPacket2_i[65] 
+ decodedPacket2_i[64] decodedPacket2_i[63] decodedPacket2_i[62] decodedPacket2_i[61] 
+ decodedPacket2_i[60] decodedPacket2_i[59] decodedPacket2_i[58] decodedPacket2_i[57] 
+ decodedPacket2_i[56] decodedPacket2_i[55] decodedPacket2_i[54] decodedPacket2_i[53] 
+ decodedPacket2_i[52] decodedPacket2_i[51] decodedPacket2_i[50] decodedPacket2_i[49] 
+ decodedPacket2_i[48] decodedPacket2_i[47] decodedPacket2_i[46] decodedPacket2_i[45] 
+ decodedPacket2_i[44] decodedPacket2_i[43] decodedPacket2_i[42] decodedPacket2_i[41] 
+ decodedPacket2_i[40] decodedPacket2_i[39] decodedPacket2_i[38] decodedPacket2_i[37] 
+ decodedPacket2_i[36] decodedPacket2_i[35] decodedPacket2_i[34] decodedPacket2_i[33] 
+ decodedPacket2_i[32] decodedPacket2_i[31] decodedPacket2_i[30] decodedPacket2_i[29] 
+ decodedPacket2_i[28] decodedPacket2_i[27] decodedPacket2_i[26] decodedPacket2_i[25] 
+ decodedPacket2_i[24] decodedPacket2_i[23] decodedPacket2_i[22] decodedPacket2_i[21] 
+ decodedPacket2_i[20] decodedPacket2_i[19] decodedPacket2_i[18] decodedPacket2_i[17] 
+ decodedPacket2_i[16] decodedPacket2_i[15] decodedPacket2_i[14] decodedPacket2_i[13] 
+ decodedPacket2_i[12] decodedPacket2_i[11] decodedPacket2_i[10] decodedPacket2_i[9] 
+ decodedPacket2_i[8] decodedPacket2_i[7] decodedPacket2_i[6] decodedPacket2_i[5] 
+ decodedPacket2_i[4] decodedPacket2_i[3] decodedPacket2_i[2] decodedPacket2_i[1] 
+ decodedPacket2_i[0] decodedPacket3_i[125] decodedPacket3_i[124] decodedPacket3_i[123] 
+ decodedPacket3_i[122] decodedPacket3_i[121] decodedPacket3_i[120] decodedPacket3_i[119] 
+ decodedPacket3_i[118] decodedPacket3_i[117] decodedPacket3_i[116] decodedPacket3_i[115] 
+ decodedPacket3_i[114] decodedPacket3_i[113] decodedPacket3_i[112] decodedPacket3_i[111] 
+ decodedPacket3_i[110] decodedPacket3_i[109] decodedPacket3_i[108] decodedPacket3_i[107] 
+ decodedPacket3_i[106] decodedPacket3_i[105] decodedPacket3_i[104] decodedPacket3_i[103] 
+ decodedPacket3_i[102] decodedPacket3_i[101] decodedPacket3_i[100] decodedPacket3_i[99] 
+ decodedPacket3_i[98] decodedPacket3_i[97] decodedPacket3_i[96] decodedPacket3_i[95] 
+ decodedPacket3_i[94] decodedPacket3_i[93] decodedPacket3_i[92] decodedPacket3_i[91] 
+ decodedPacket3_i[90] decodedPacket3_i[89] decodedPacket3_i[88] decodedPacket3_i[87] 
+ decodedPacket3_i[86] decodedPacket3_i[85] decodedPacket3_i[84] decodedPacket3_i[83] 
+ decodedPacket3_i[82] decodedPacket3_i[81] decodedPacket3_i[80] decodedPacket3_i[79] 
+ decodedPacket3_i[78] decodedPacket3_i[77] decodedPacket3_i[76] decodedPacket3_i[75] 
+ decodedPacket3_i[74] decodedPacket3_i[73] decodedPacket3_i[72] decodedPacket3_i[71] 
+ decodedPacket3_i[70] decodedPacket3_i[69] decodedPacket3_i[68] decodedPacket3_i[67] 
+ decodedPacket3_i[66] decodedPacket3_i[65] decodedPacket3_i[64] decodedPacket3_i[63] 
+ decodedPacket3_i[62] decodedPacket3_i[61] decodedPacket3_i[60] decodedPacket3_i[59] 
+ decodedPacket3_i[58] decodedPacket3_i[57] decodedPacket3_i[56] decodedPacket3_i[55] 
+ decodedPacket3_i[54] decodedPacket3_i[53] decodedPacket3_i[52] decodedPacket3_i[51] 
+ decodedPacket3_i[50] decodedPacket3_i[49] decodedPacket3_i[48] decodedPacket3_i[47] 
+ decodedPacket3_i[46] decodedPacket3_i[45] decodedPacket3_i[44] decodedPacket3_i[43] 
+ decodedPacket3_i[42] decodedPacket3_i[41] decodedPacket3_i[40] decodedPacket3_i[39] 
+ decodedPacket3_i[38] decodedPacket3_i[37] decodedPacket3_i[36] decodedPacket3_i[35] 
+ decodedPacket3_i[34] decodedPacket3_i[33] decodedPacket3_i[32] decodedPacket3_i[31] 
+ decodedPacket3_i[30] decodedPacket3_i[29] decodedPacket3_i[28] decodedPacket3_i[27] 
+ decodedPacket3_i[26] decodedPacket3_i[25] decodedPacket3_i[24] decodedPacket3_i[23] 
+ decodedPacket3_i[22] decodedPacket3_i[21] decodedPacket3_i[20] decodedPacket3_i[19] 
+ decodedPacket3_i[18] decodedPacket3_i[17] decodedPacket3_i[16] decodedPacket3_i[15] 
+ decodedPacket3_i[14] decodedPacket3_i[13] decodedPacket3_i[12] decodedPacket3_i[11] 
+ decodedPacket3_i[10] decodedPacket3_i[9] decodedPacket3_i[8] decodedPacket3_i[7] 
+ decodedPacket3_i[6] decodedPacket3_i[5] decodedPacket3_i[4] decodedPacket3_i[3] 
+ decodedPacket3_i[2] decodedPacket3_i[1] decodedPacket3_i[0] branchCount_i[2] branchCount_i[1] 
+ branchCount_i[0] instBufferReady_o decodedPacket0_o[125] decodedPacket0_o[124] 
+ decodedPacket0_o[123] decodedPacket0_o[122] decodedPacket0_o[121] decodedPacket0_o[120] 
+ decodedPacket0_o[119] decodedPacket0_o[118] decodedPacket0_o[117] decodedPacket0_o[116] 
+ decodedPacket0_o[115] decodedPacket0_o[114] decodedPacket0_o[113] decodedPacket0_o[112] 
+ decodedPacket0_o[111] decodedPacket0_o[110] decodedPacket0_o[109] decodedPacket0_o[108] 
+ decodedPacket0_o[107] decodedPacket0_o[106] decodedPacket0_o[105] decodedPacket0_o[104] 
+ decodedPacket0_o[103] decodedPacket0_o[102] decodedPacket0_o[101] decodedPacket0_o[100] 
+ decodedPacket0_o[99] decodedPacket0_o[98] decodedPacket0_o[97] decodedPacket0_o[96] 
+ decodedPacket0_o[95] decodedPacket0_o[94] decodedPacket0_o[93] decodedPacket0_o[92] 
+ decodedPacket0_o[91] decodedPacket0_o[90] decodedPacket0_o[89] decodedPacket0_o[88] 
+ decodedPacket0_o[87] decodedPacket0_o[86] decodedPacket0_o[85] decodedPacket0_o[84] 
+ decodedPacket0_o[83] decodedPacket0_o[82] decodedPacket0_o[81] decodedPacket0_o[80] 
+ decodedPacket0_o[79] decodedPacket0_o[78] decodedPacket0_o[77] decodedPacket0_o[76] 
+ decodedPacket0_o[75] decodedPacket0_o[74] decodedPacket0_o[73] decodedPacket0_o[72] 
+ decodedPacket0_o[71] decodedPacket0_o[70] decodedPacket0_o[69] decodedPacket0_o[68] 
+ decodedPacket0_o[67] decodedPacket0_o[66] decodedPacket0_o[65] decodedPacket0_o[64] 
+ decodedPacket0_o[63] decodedPacket0_o[62] decodedPacket0_o[61] decodedPacket0_o[60] 
+ decodedPacket0_o[59] decodedPacket0_o[58] decodedPacket0_o[57] decodedPacket0_o[56] 
+ decodedPacket0_o[55] decodedPacket0_o[54] decodedPacket0_o[53] decodedPacket0_o[52] 
+ decodedPacket0_o[51] decodedPacket0_o[50] decodedPacket0_o[49] decodedPacket0_o[48] 
+ decodedPacket0_o[47] decodedPacket0_o[46] decodedPacket0_o[45] decodedPacket0_o[44] 
+ decodedPacket0_o[43] decodedPacket0_o[42] decodedPacket0_o[41] decodedPacket0_o[40] 
+ decodedPacket0_o[39] decodedPacket0_o[38] decodedPacket0_o[37] decodedPacket0_o[36] 
+ decodedPacket0_o[35] decodedPacket0_o[34] decodedPacket0_o[33] decodedPacket0_o[32] 
+ decodedPacket0_o[31] decodedPacket0_o[30] decodedPacket0_o[29] decodedPacket0_o[28] 
+ decodedPacket0_o[27] decodedPacket0_o[26] decodedPacket0_o[25] decodedPacket0_o[24] 
+ decodedPacket0_o[23] decodedPacket0_o[22] decodedPacket0_o[21] decodedPacket0_o[20] 
+ decodedPacket0_o[19] decodedPacket0_o[18] decodedPacket0_o[17] decodedPacket0_o[16] 
+ decodedPacket0_o[15] decodedPacket0_o[14] decodedPacket0_o[13] decodedPacket0_o[12] 
+ decodedPacket0_o[11] decodedPacket0_o[10] decodedPacket0_o[9] decodedPacket0_o[8] 
+ decodedPacket0_o[7] decodedPacket0_o[6] decodedPacket0_o[5] decodedPacket0_o[4] 
+ decodedPacket0_o[3] decodedPacket0_o[2] decodedPacket0_o[1] decodedPacket0_o[0] 
+ decodedPacket1_o[125] decodedPacket1_o[124] decodedPacket1_o[123] decodedPacket1_o[122] 
+ decodedPacket1_o[121] decodedPacket1_o[120] decodedPacket1_o[119] decodedPacket1_o[118] 
+ decodedPacket1_o[117] decodedPacket1_o[116] decodedPacket1_o[115] decodedPacket1_o[114] 
+ decodedPacket1_o[113] decodedPacket1_o[112] decodedPacket1_o[111] decodedPacket1_o[110] 
+ decodedPacket1_o[109] decodedPacket1_o[108] decodedPacket1_o[107] decodedPacket1_o[106] 
+ decodedPacket1_o[105] decodedPacket1_o[104] decodedPacket1_o[103] decodedPacket1_o[102] 
+ decodedPacket1_o[101] decodedPacket1_o[100] decodedPacket1_o[99] decodedPacket1_o[98] 
+ decodedPacket1_o[97] decodedPacket1_o[96] decodedPacket1_o[95] decodedPacket1_o[94] 
+ decodedPacket1_o[93] decodedPacket1_o[92] decodedPacket1_o[91] decodedPacket1_o[90] 
+ decodedPacket1_o[89] decodedPacket1_o[88] decodedPacket1_o[87] decodedPacket1_o[86] 
+ decodedPacket1_o[85] decodedPacket1_o[84] decodedPacket1_o[83] decodedPacket1_o[82] 
+ decodedPacket1_o[81] decodedPacket1_o[80] decodedPacket1_o[79] decodedPacket1_o[78] 
+ decodedPacket1_o[77] decodedPacket1_o[76] decodedPacket1_o[75] decodedPacket1_o[74] 
+ decodedPacket1_o[73] decodedPacket1_o[72] decodedPacket1_o[71] decodedPacket1_o[70] 
+ decodedPacket1_o[69] decodedPacket1_o[68] decodedPacket1_o[67] decodedPacket1_o[66] 
+ decodedPacket1_o[65] decodedPacket1_o[64] decodedPacket1_o[63] decodedPacket1_o[62] 
+ decodedPacket1_o[61] decodedPacket1_o[60] decodedPacket1_o[59] decodedPacket1_o[58] 
+ decodedPacket1_o[57] decodedPacket1_o[56] decodedPacket1_o[55] decodedPacket1_o[54] 
+ decodedPacket1_o[53] decodedPacket1_o[52] decodedPacket1_o[51] decodedPacket1_o[50] 
+ decodedPacket1_o[49] decodedPacket1_o[48] decodedPacket1_o[47] decodedPacket1_o[46] 
+ decodedPacket1_o[45] decodedPacket1_o[44] decodedPacket1_o[43] decodedPacket1_o[42] 
+ decodedPacket1_o[41] decodedPacket1_o[40] decodedPacket1_o[39] decodedPacket1_o[38] 
+ decodedPacket1_o[37] decodedPacket1_o[36] decodedPacket1_o[35] decodedPacket1_o[34] 
+ decodedPacket1_o[33] decodedPacket1_o[32] decodedPacket1_o[31] decodedPacket1_o[30] 
+ decodedPacket1_o[29] decodedPacket1_o[28] decodedPacket1_o[27] decodedPacket1_o[26] 
+ decodedPacket1_o[25] decodedPacket1_o[24] decodedPacket1_o[23] decodedPacket1_o[22] 
+ decodedPacket1_o[21] decodedPacket1_o[20] decodedPacket1_o[19] decodedPacket1_o[18] 
+ decodedPacket1_o[17] decodedPacket1_o[16] decodedPacket1_o[15] decodedPacket1_o[14] 
+ decodedPacket1_o[13] decodedPacket1_o[12] decodedPacket1_o[11] decodedPacket1_o[10] 
+ decodedPacket1_o[9] decodedPacket1_o[8] decodedPacket1_o[7] decodedPacket1_o[6] 
+ decodedPacket1_o[5] decodedPacket1_o[4] decodedPacket1_o[3] decodedPacket1_o[2] 
+ decodedPacket1_o[1] decodedPacket1_o[0] decodedPacket2_o[125] decodedPacket2_o[124] 
+ decodedPacket2_o[123] decodedPacket2_o[122] decodedPacket2_o[121] decodedPacket2_o[120] 
+ decodedPacket2_o[119] decodedPacket2_o[118] decodedPacket2_o[117] decodedPacket2_o[116] 
+ decodedPacket2_o[115] decodedPacket2_o[114] decodedPacket2_o[113] decodedPacket2_o[112] 
+ decodedPacket2_o[111] decodedPacket2_o[110] decodedPacket2_o[109] decodedPacket2_o[108] 
+ decodedPacket2_o[107] decodedPacket2_o[106] decodedPacket2_o[105] decodedPacket2_o[104] 
+ decodedPacket2_o[103] decodedPacket2_o[102] decodedPacket2_o[101] decodedPacket2_o[100] 
+ decodedPacket2_o[99] decodedPacket2_o[98] decodedPacket2_o[97] decodedPacket2_o[96] 
+ decodedPacket2_o[95] decodedPacket2_o[94] decodedPacket2_o[93] decodedPacket2_o[92] 
+ decodedPacket2_o[91] decodedPacket2_o[90] decodedPacket2_o[89] decodedPacket2_o[88] 
+ decodedPacket2_o[87] decodedPacket2_o[86] decodedPacket2_o[85] decodedPacket2_o[84] 
+ decodedPacket2_o[83] decodedPacket2_o[82] decodedPacket2_o[81] decodedPacket2_o[80] 
+ decodedPacket2_o[79] decodedPacket2_o[78] decodedPacket2_o[77] decodedPacket2_o[76] 
+ decodedPacket2_o[75] decodedPacket2_o[74] decodedPacket2_o[73] decodedPacket2_o[72] 
+ decodedPacket2_o[71] decodedPacket2_o[70] decodedPacket2_o[69] decodedPacket2_o[68] 
+ decodedPacket2_o[67] decodedPacket2_o[66] decodedPacket2_o[65] decodedPacket2_o[64] 
+ decodedPacket2_o[63] decodedPacket2_o[62] decodedPacket2_o[61] decodedPacket2_o[60] 
+ decodedPacket2_o[59] decodedPacket2_o[58] decodedPacket2_o[57] decodedPacket2_o[56] 
+ decodedPacket2_o[55] decodedPacket2_o[54] decodedPacket2_o[53] decodedPacket2_o[52] 
+ decodedPacket2_o[51] decodedPacket2_o[50] decodedPacket2_o[49] decodedPacket2_o[48] 
+ decodedPacket2_o[47] decodedPacket2_o[46] decodedPacket2_o[45] decodedPacket2_o[44] 
+ decodedPacket2_o[43] decodedPacket2_o[42] decodedPacket2_o[41] decodedPacket2_o[40] 
+ decodedPacket2_o[39] decodedPacket2_o[38] decodedPacket2_o[37] decodedPacket2_o[36] 
+ decodedPacket2_o[35] decodedPacket2_o[34] decodedPacket2_o[33] decodedPacket2_o[32] 
+ decodedPacket2_o[31] decodedPacket2_o[30] decodedPacket2_o[29] decodedPacket2_o[28] 
+ decodedPacket2_o[27] decodedPacket2_o[26] decodedPacket2_o[25] decodedPacket2_o[24] 
+ decodedPacket2_o[23] decodedPacket2_o[22] decodedPacket2_o[21] decodedPacket2_o[20] 
+ decodedPacket2_o[19] decodedPacket2_o[18] decodedPacket2_o[17] decodedPacket2_o[16] 
+ decodedPacket2_o[15] decodedPacket2_o[14] decodedPacket2_o[13] decodedPacket2_o[12] 
+ decodedPacket2_o[11] decodedPacket2_o[10] decodedPacket2_o[9] decodedPacket2_o[8] 
+ decodedPacket2_o[7] decodedPacket2_o[6] decodedPacket2_o[5] decodedPacket2_o[4] 
+ decodedPacket2_o[3] decodedPacket2_o[2] decodedPacket2_o[1] decodedPacket2_o[0] 
+ decodedPacket3_o[125] decodedPacket3_o[124] decodedPacket3_o[123] decodedPacket3_o[122] 
+ decodedPacket3_o[121] decodedPacket3_o[120] decodedPacket3_o[119] decodedPacket3_o[118] 
+ decodedPacket3_o[117] decodedPacket3_o[116] decodedPacket3_o[115] decodedPacket3_o[114] 
+ decodedPacket3_o[113] decodedPacket3_o[112] decodedPacket3_o[111] decodedPacket3_o[110] 
+ decodedPacket3_o[109] decodedPacket3_o[108] decodedPacket3_o[107] decodedPacket3_o[106] 
+ decodedPacket3_o[105] decodedPacket3_o[104] decodedPacket3_o[103] decodedPacket3_o[102] 
+ decodedPacket3_o[101] decodedPacket3_o[100] decodedPacket3_o[99] decodedPacket3_o[98] 
+ decodedPacket3_o[97] decodedPacket3_o[96] decodedPacket3_o[95] decodedPacket3_o[94] 
+ decodedPacket3_o[93] decodedPacket3_o[92] decodedPacket3_o[91] decodedPacket3_o[90] 
+ decodedPacket3_o[89] decodedPacket3_o[88] decodedPacket3_o[87] decodedPacket3_o[86] 
+ decodedPacket3_o[85] decodedPacket3_o[84] decodedPacket3_o[83] decodedPacket3_o[82] 
+ decodedPacket3_o[81] decodedPacket3_o[80] decodedPacket3_o[79] decodedPacket3_o[78] 
+ decodedPacket3_o[77] decodedPacket3_o[76] decodedPacket3_o[75] decodedPacket3_o[74] 
+ decodedPacket3_o[73] decodedPacket3_o[72] decodedPacket3_o[71] decodedPacket3_o[70] 
+ decodedPacket3_o[69] decodedPacket3_o[68] decodedPacket3_o[67] decodedPacket3_o[66] 
+ decodedPacket3_o[65] decodedPacket3_o[64] decodedPacket3_o[63] decodedPacket3_o[62] 
+ decodedPacket3_o[61] decodedPacket3_o[60] decodedPacket3_o[59] decodedPacket3_o[58] 
+ decodedPacket3_o[57] decodedPacket3_o[56] decodedPacket3_o[55] decodedPacket3_o[54] 
+ decodedPacket3_o[53] decodedPacket3_o[52] decodedPacket3_o[51] decodedPacket3_o[50] 
+ decodedPacket3_o[49] decodedPacket3_o[48] decodedPacket3_o[47] decodedPacket3_o[46] 
+ decodedPacket3_o[45] decodedPacket3_o[44] decodedPacket3_o[43] decodedPacket3_o[42] 
+ decodedPacket3_o[41] decodedPacket3_o[40] decodedPacket3_o[39] decodedPacket3_o[38] 
+ decodedPacket3_o[37] decodedPacket3_o[36] decodedPacket3_o[35] decodedPacket3_o[34] 
+ decodedPacket3_o[33] decodedPacket3_o[32] decodedPacket3_o[31] decodedPacket3_o[30] 
+ decodedPacket3_o[29] decodedPacket3_o[28] decodedPacket3_o[27] decodedPacket3_o[26] 
+ decodedPacket3_o[25] decodedPacket3_o[24] decodedPacket3_o[23] decodedPacket3_o[22] 
+ decodedPacket3_o[21] decodedPacket3_o[20] decodedPacket3_o[19] decodedPacket3_o[18] 
+ decodedPacket3_o[17] decodedPacket3_o[16] decodedPacket3_o[15] decodedPacket3_o[14] 
+ decodedPacket3_o[13] decodedPacket3_o[12] decodedPacket3_o[11] decodedPacket3_o[10] 
+ decodedPacket3_o[9] decodedPacket3_o[8] decodedPacket3_o[7] decodedPacket3_o[6] 
+ decodedPacket3_o[5] decodedPacket3_o[4] decodedPacket3_o[3] decodedPacket3_o[2] 
+ decodedPacket3_o[1] decodedPacket3_o[0] branchCount_o[2] branchCount_o[1] branchCount_o[0] 
XU2646 n2592 n2645 INVX1_RVT 
XU2645 n2592 n2644 INVX1_RVT 
XU2644 n2591 n2643 INVX1_RVT 
XU2643 n2591 n2642 INVX1_RVT 
XU2642 n2591 n2641 INVX1_RVT 
XU2641 n2590 n2640 INVX1_RVT 
XU2640 n2590 n2639 INVX1_RVT 
XU2639 n2590 n2638 INVX1_RVT 
XU2638 n3 n2637 INVX1_RVT 
XU2637 n3 n2636 INVX1_RVT 
XU2636 n3 n2635 INVX1_RVT 
XU2635 n2636 n2634 INVX1_RVT 
XU2634 n2635 n2633 INVX1_RVT 
XU2633 n2636 n2632 INVX1_RVT 
XU2632 n2637 n2631 INVX1_RVT 
XU2631 n2635 n2630 INVX1_RVT 
XU2630 n2635 n2629 INVX1_RVT 
XU2629 n2635 n2628 INVX1_RVT 
XU2628 n2635 n2627 INVX1_RVT 
XU2627 n2637 n2626 INVX1_RVT 
XU2626 n2636 n2625 INVX1_RVT 
XU2625 n2637 n2624 INVX1_RVT 
XU2624 n2636 n2623 INVX1_RVT 
XU2623 n2636 n2622 INVX1_RVT 
XU2622 n2636 n2621 INVX1_RVT 
XU2621 n2637 n2620 INVX1_RVT 
XU2620 n2637 n2619 INVX1_RVT 
XU2619 n2637 n2618 INVX1_RVT 
XU2618 n2638 n2617 INVX1_RVT 
XU2617 n2638 n2616 INVX1_RVT 
XU2616 n2638 n2615 INVX1_RVT 
XU2615 n2639 n2614 INVX1_RVT 
XU2614 n2639 n2613 INVX1_RVT 
XU2613 n2639 n2612 INVX1_RVT 
XU2612 n2640 n2611 INVX1_RVT 
XU2611 n2640 n2610 INVX1_RVT 
XU2610 n2640 n2609 INVX1_RVT 
XU2609 n2641 n2608 INVX1_RVT 
XU2608 n2641 n2607 INVX1_RVT 
XU2607 n2641 n2606 INVX1_RVT 
XU2606 n2642 n2605 INVX1_RVT 
XU2605 n2642 n2604 INVX1_RVT 
XU2604 n2642 n2603 INVX1_RVT 
XU2603 n2643 n2602 INVX1_RVT 
XU2602 n2643 n2601 INVX1_RVT 
XU2601 n2643 n2600 INVX1_RVT 
XU2600 n2644 n2599 INVX1_RVT 
XU2599 n2644 n2598 INVX1_RVT 
XU2598 n2644 n2597 INVX1_RVT 
XU2597 n2645 n2596 INVX1_RVT 
XU2596 n2645 n2595 INVX1_RVT 
XU2595 n2645 n2594 INVX1_RVT 
XU2594 n3 n2593 INVX1_RVT 
XU2593 n2593 n2592 INVX1_RVT 
XU2592 n2593 n2591 INVX1_RVT 
XU2591 n2593 n2590 INVX1_RVT 
XU2590 n2548 n2589 INVX1_RVT 
XU2589 n2548 n2588 INVX1_RVT 
XU2588 n2548 n2587 INVX1_RVT 
XU2587 n2547 n2586 INVX1_RVT 
XU2586 n2547 n2585 INVX1_RVT 
XU2585 n2547 n2584 INVX1_RVT 
XU2584 n2584 n2583 INVX1_RVT 
XU2583 n2584 n2582 INVX1_RVT 
XU2582 n2584 n2581 INVX1_RVT 
XU2581 n2586 n2580 INVX1_RVT 
XU2580 n2584 n2579 INVX1_RVT 
XU2579 n2585 n2578 INVX1_RVT 
XU2578 n2585 n2577 INVX1_RVT 
XU2577 n2586 n2576 INVX1_RVT 
XU2576 n2584 n2575 INVX1_RVT 
XU2575 n2585 n2574 INVX1_RVT 
XU2574 n2585 n2573 INVX1_RVT 
XU2573 n2585 n2572 INVX1_RVT 
XU2572 n2586 n2571 INVX1_RVT 
XU2571 n2586 n2570 INVX1_RVT 
XU2570 n2586 n2569 INVX1_RVT 
XU2569 n2588 n2568 INVX1_RVT 
XU2568 n2587 n2567 INVX1_RVT 
XU2567 n2588 n2566 INVX1_RVT 
XU2566 n2584 n2565 INVX1_RVT 
XU2565 n2585 n2564 INVX1_RVT 
XU2564 n2586 n2563 INVX1_RVT 
XU2563 n2584 n2562 INVX1_RVT 
XU2562 n2587 n2561 INVX1_RVT 
XU2561 n2586 n2560 INVX1_RVT 
XU2560 n2587 n2559 INVX1_RVT 
XU2559 n2588 n2558 INVX1_RVT 
XU2558 n2587 n2557 INVX1_RVT 
XU2557 n2587 n2556 INVX1_RVT 
XU2556 n2587 n2555 INVX1_RVT 
XU2555 n2587 n2554 INVX1_RVT 
XU2554 n2588 n2553 INVX1_RVT 
XU2553 n2588 n2552 INVX1_RVT 
XU2552 n2588 n2551 INVX1_RVT 
XU2551 n2589 n2550 INVX1_RVT 
XU2550 n4 n2549 INVX1_RVT 
XU2549 n2549 n2548 INVX1_RVT 
XU2548 n2549 n2547 INVX1_RVT 
XU2547 n2545 n2546 INVX1_RVT 
XU2546 n1530 n2545 INVX1_RVT 
XU2545 n2543 n2544 INVX1_RVT 
XU2544 n1529 n2543 INVX1_RVT 
XU2543 n2541 n2542 INVX1_RVT 
XU2542 n1528 n2541 INVX1_RVT 
XU2541 n2539 n2540 INVX1_RVT 
XU2540 n1527 n2539 INVX1_RVT 
XU2539 n2537 n2538 INVX1_RVT 
XU2538 n1526 n2537 INVX1_RVT 
XU2537 n2535 n2536 INVX1_RVT 
XU2536 n1525 n2535 INVX1_RVT 
XU2535 n2533 n2534 INVX1_RVT 
XU2534 n1524 n2533 INVX1_RVT 
XU2533 n2531 n2532 INVX1_RVT 
XU2532 n1523 n2531 INVX1_RVT 
XU2531 n2529 n2530 INVX1_RVT 
XU2530 n1522 n2529 INVX1_RVT 
XU2529 n2527 n2528 INVX1_RVT 
XU2528 n1521 n2527 INVX1_RVT 
XU2527 n2525 n2526 INVX1_RVT 
XU2526 n1520 n2525 INVX1_RVT 
XU2525 n2523 n2524 INVX1_RVT 
XU2524 n1519 n2523 INVX1_RVT 
XU2523 n2521 n2522 INVX1_RVT 
XU2522 n1518 n2521 INVX1_RVT 
XU2521 n2519 n2520 INVX1_RVT 
XU2520 n1517 n2519 INVX1_RVT 
XU2519 n2517 n2518 INVX1_RVT 
XU2518 n1516 n2517 INVX1_RVT 
XU2517 n2515 n2516 INVX1_RVT 
XU2516 n1515 n2515 INVX1_RVT 
XU2515 n2513 n2514 INVX1_RVT 
XU2514 n1514 n2513 INVX1_RVT 
XU2513 n2511 n2512 INVX1_RVT 
XU2512 n1513 n2511 INVX1_RVT 
XU2511 n2509 n2510 INVX1_RVT 
XU2510 n1512 n2509 INVX1_RVT 
XU2509 n2507 n2508 INVX1_RVT 
XU2508 n1511 n2507 INVX1_RVT 
XU2507 n2505 n2506 INVX1_RVT 
XU2506 n1510 n2505 INVX1_RVT 
XU2505 n2503 n2504 INVX1_RVT 
XU2504 n1509 n2503 INVX1_RVT 
XU2503 n2501 n2502 INVX1_RVT 
XU2502 n1508 n2501 INVX1_RVT 
XU2501 n2499 n2500 INVX1_RVT 
XU2500 n1507 n2499 INVX1_RVT 
XU2499 n2497 n2498 INVX1_RVT 
XU2498 n1506 n2497 INVX1_RVT 
XU2497 n2495 n2496 INVX1_RVT 
XU2496 n1505 n2495 INVX1_RVT 
XU2495 n2493 n2494 INVX1_RVT 
XU2494 n1504 n2493 INVX1_RVT 
XU2493 n2491 n2492 INVX1_RVT 
XU2492 n1503 n2491 INVX1_RVT 
XU2491 n2489 n2490 INVX1_RVT 
XU2490 n1502 n2489 INVX1_RVT 
XU2489 n2487 n2488 INVX1_RVT 
XU2488 n1501 n2487 INVX1_RVT 
XU2487 n2485 n2486 INVX1_RVT 
XU2486 n1500 n2485 INVX1_RVT 
XU2485 n2483 n2484 INVX1_RVT 
XU2484 n1499 n2483 INVX1_RVT 
XU2483 n2481 n2482 INVX1_RVT 
XU2482 n1498 n2481 INVX1_RVT 
XU2481 n2479 n2480 INVX1_RVT 
XU2480 n1497 n2479 INVX1_RVT 
XU2479 n2477 n2478 INVX1_RVT 
XU2478 n1496 n2477 INVX1_RVT 
XU2477 n2475 n2476 INVX1_RVT 
XU2476 n1495 n2475 INVX1_RVT 
XU2475 n2473 n2474 INVX1_RVT 
XU2474 n1494 n2473 INVX1_RVT 
XU2473 n2471 n2472 INVX1_RVT 
XU2472 n1493 n2471 INVX1_RVT 
XU2471 n2469 n2470 INVX1_RVT 
XU2470 n1492 n2469 INVX1_RVT 
XU2469 n2467 n2468 INVX1_RVT 
XU2468 n1491 n2467 INVX1_RVT 
XU2467 n2465 n2466 INVX1_RVT 
XU2466 n1490 n2465 INVX1_RVT 
XU2465 n2463 n2464 INVX1_RVT 
XU2464 n1489 n2463 INVX1_RVT 
XU2463 n2461 n2462 INVX1_RVT 
XU2462 n1488 n2461 INVX1_RVT 
XU2461 n2459 n2460 INVX1_RVT 
XU2460 n1487 n2459 INVX1_RVT 
XU2459 n2457 n2458 INVX1_RVT 
XU2458 n1486 n2457 INVX1_RVT 
XU2457 n2455 n2456 INVX1_RVT 
XU2456 n1485 n2455 INVX1_RVT 
XU2455 n2453 n2454 INVX1_RVT 
XU2454 n1484 n2453 INVX1_RVT 
XU2453 n2451 n2452 INVX1_RVT 
XU2452 n1483 n2451 INVX1_RVT 
XU2451 n2449 n2450 INVX1_RVT 
XU2450 n1482 n2449 INVX1_RVT 
XU2449 n2447 n2448 INVX1_RVT 
XU2448 n1481 n2447 INVX1_RVT 
XU2447 n2445 n2446 INVX1_RVT 
XU2446 n1480 n2445 INVX1_RVT 
XU2445 n2443 n2444 INVX1_RVT 
XU2444 n1479 n2443 INVX1_RVT 
XU2443 n2441 n2442 INVX1_RVT 
XU2442 n1478 n2441 INVX1_RVT 
XU2441 n2439 n2440 INVX1_RVT 
XU2440 n1477 n2439 INVX1_RVT 
XU2439 n2437 n2438 INVX1_RVT 
XU2438 n1476 n2437 INVX1_RVT 
XU2437 n2435 n2436 INVX1_RVT 
XU2436 n1475 n2435 INVX1_RVT 
XU2435 n2433 n2434 INVX1_RVT 
XU2434 n1474 n2433 INVX1_RVT 
XU2433 n2431 n2432 INVX1_RVT 
XU2432 n1473 n2431 INVX1_RVT 
XU2431 n2429 n2430 INVX1_RVT 
XU2430 n1472 n2429 INVX1_RVT 
XU2429 n2427 n2428 INVX1_RVT 
XU2428 n1471 n2427 INVX1_RVT 
XU2427 n2425 n2426 INVX1_RVT 
XU2426 n1470 n2425 INVX1_RVT 
XU2425 n2423 n2424 INVX1_RVT 
XU2424 n1469 n2423 INVX1_RVT 
XU2423 n2421 n2422 INVX1_RVT 
XU2422 n1468 n2421 INVX1_RVT 
XU2421 n2419 n2420 INVX1_RVT 
XU2420 n1467 n2419 INVX1_RVT 
XU2419 n2417 n2418 INVX1_RVT 
XU2418 n1466 n2417 INVX1_RVT 
XU2417 n2415 n2416 INVX1_RVT 
XU2416 n1465 n2415 INVX1_RVT 
XU2415 n2413 n2414 INVX1_RVT 
XU2414 n1464 n2413 INVX1_RVT 
XU2413 n2411 n2412 INVX1_RVT 
XU2412 n1463 n2411 INVX1_RVT 
XU2411 n2409 n2410 INVX1_RVT 
XU2410 n1462 n2409 INVX1_RVT 
XU2409 n2407 n2408 INVX1_RVT 
XU2408 n1461 n2407 INVX1_RVT 
XU2407 n2405 n2406 INVX1_RVT 
XU2406 n1460 n2405 INVX1_RVT 
XU2405 n2403 n2404 INVX1_RVT 
XU2404 n1459 n2403 INVX1_RVT 
XU2403 n2401 n2402 INVX1_RVT 
XU2402 n1458 n2401 INVX1_RVT 
XU2401 n2399 n2400 INVX1_RVT 
XU2400 n1457 n2399 INVX1_RVT 
XU2399 n2397 n2398 INVX1_RVT 
XU2398 n1456 n2397 INVX1_RVT 
XU2397 n2395 n2396 INVX1_RVT 
XU2396 n1455 n2395 INVX1_RVT 
XU2395 n2393 n2394 INVX1_RVT 