* Nettran: AMD.64 Release B-2008.09.SP5.HF2.26004 2012/07/19
* Created:  6/23/2016  12:28
* Options: -verilog netlist.v -outName netlist.sp -verilog-b1 VDD -verilog-b0 GND -outType spice 

.GLOBAL VDD GND 

.SUBCKT Dispatch clk reset stall_i renameReady_i flagRecoverEX_i ctrlVerified_i ctrlVerifiedSMTid_i[1] 
+ ctrlVerifiedSMTid_i[0] renamedPacket0_i[144] renamedPacket0_i[143] renamedPacket0_i[142] 
+ renamedPacket0_i[141] renamedPacket0_i[140] renamedPacket0_i[139] renamedPacket0_i[138] 
+ renamedPacket0_i[137] renamedPacket0_i[136] renamedPacket0_i[135] renamedPacket0_i[134] 
+ renamedPacket0_i[133] renamedPacket0_i[132] renamedPacket0_i[131] renamedPacket0_i[130] 
+ renamedPacket0_i[129] renamedPacket0_i[128] renamedPacket0_i[127] renamedPacket0_i[126] 
+ renamedPacket0_i[125] renamedPacket0_i[124] renamedPacket0_i[123] renamedPacket0_i[122] 
+ renamedPacket0_i[121] renamedPacket0_i[120] renamedPacket0_i[119] renamedPacket0_i[118] 
+ renamedPacket0_i[117] renamedPacket0_i[116] renamedPacket0_i[115] renamedPacket0_i[114] 
+ renamedPacket0_i[113] renamedPacket0_i[112] renamedPacket0_i[111] renamedPacket0_i[110] 
+ renamedPacket0_i[109] renamedPacket0_i[108] renamedPacket0_i[107] renamedPacket0_i[106] 
+ renamedPacket0_i[105] renamedPacket0_i[104] renamedPacket0_i[103] renamedPacket0_i[102] 
+ renamedPacket0_i[101] renamedPacket0_i[100] renamedPacket0_i[99] renamedPacket0_i[98] 
+ renamedPacket0_i[97] renamedPacket0_i[96] renamedPacket0_i[95] renamedPacket0_i[94] 
+ renamedPacket0_i[93] renamedPacket0_i[92] renamedPacket0_i[91] renamedPacket0_i[90] 
+ renamedPacket0_i[89] renamedPacket0_i[88] renamedPacket0_i[87] renamedPacket0_i[86] 
+ renamedPacket0_i[85] renamedPacket0_i[84] renamedPacket0_i[83] renamedPacket0_i[82] 
+ renamedPacket0_i[81] renamedPacket0_i[80] renamedPacket0_i[79] renamedPacket0_i[78] 
+ renamedPacket0_i[77] renamedPacket0_i[76] renamedPacket0_i[75] renamedPacket0_i[74] 
+ renamedPacket0_i[73] renamedPacket0_i[72] renamedPacket0_i[71] renamedPacket0_i[70] 
+ renamedPacket0_i[69] renamedPacket0_i[68] renamedPacket0_i[67] renamedPacket0_i[66] 
+ renamedPacket0_i[65] renamedPacket0_i[64] renamedPacket0_i[63] renamedPacket0_i[62] 
+ renamedPacket0_i[61] renamedPacket0_i[60] renamedPacket0_i[59] renamedPacket0_i[58] 
+ renamedPacket0_i[57] renamedPacket0_i[56] renamedPacket0_i[55] renamedPacket0_i[54] 
+ renamedPacket0_i[53] renamedPacket0_i[52] renamedPacket0_i[51] renamedPacket0_i[50] 
+ renamedPacket0_i[49] renamedPacket0_i[48] renamedPacket0_i[47] renamedPacket0_i[46] 
+ renamedPacket0_i[45] renamedPacket0_i[44] renamedPacket0_i[43] renamedPacket0_i[42] 
+ renamedPacket0_i[41] renamedPacket0_i[40] renamedPacket0_i[39] renamedPacket0_i[38] 
+ renamedPacket0_i[37] renamedPacket0_i[36] renamedPacket0_i[35] renamedPacket0_i[34] 
+ renamedPacket0_i[33] renamedPacket0_i[32] renamedPacket0_i[31] renamedPacket0_i[30] 
+ renamedPacket0_i[29] renamedPacket0_i[28] renamedPacket0_i[27] renamedPacket0_i[26] 
+ renamedPacket0_i[25] renamedPacket0_i[24] renamedPacket0_i[23] renamedPacket0_i[22] 
+ renamedPacket0_i[21] renamedPacket0_i[20] renamedPacket0_i[19] renamedPacket0_i[18] 
+ renamedPacket0_i[17] renamedPacket0_i[16] renamedPacket0_i[15] renamedPacket0_i[14] 
+ renamedPacket0_i[13] renamedPacket0_i[12] renamedPacket0_i[11] renamedPacket0_i[10] 
+ renamedPacket0_i[9] renamedPacket0_i[8] renamedPacket0_i[7] renamedPacket0_i[6] 
+ renamedPacket0_i[5] renamedPacket0_i[4] renamedPacket0_i[3] renamedPacket0_i[2] 
+ renamedPacket0_i[1] renamedPacket0_i[0] renamedPacket1_i[144] renamedPacket1_i[143] 
+ renamedPacket1_i[142] renamedPacket1_i[141] renamedPacket1_i[140] renamedPacket1_i[139] 
+ renamedPacket1_i[138] renamedPacket1_i[137] renamedPacket1_i[136] renamedPacket1_i[135] 
+ renamedPacket1_i[134] renamedPacket1_i[133] renamedPacket1_i[132] renamedPacket1_i[131] 
+ renamedPacket1_i[130] renamedPacket1_i[129] renamedPacket1_i[128] renamedPacket1_i[127] 
+ renamedPacket1_i[126] renamedPacket1_i[125] renamedPacket1_i[124] renamedPacket1_i[123] 
+ renamedPacket1_i[122] renamedPacket1_i[121] renamedPacket1_i[120] renamedPacket1_i[119] 
+ renamedPacket1_i[118] renamedPacket1_i[117] renamedPacket1_i[116] renamedPacket1_i[115] 
+ renamedPacket1_i[114] renamedPacket1_i[113] renamedPacket1_i[112] renamedPacket1_i[111] 
+ renamedPacket1_i[110] renamedPacket1_i[109] renamedPacket1_i[108] renamedPacket1_i[107] 
+ renamedPacket1_i[106] renamedPacket1_i[105] renamedPacket1_i[104] renamedPacket1_i[103] 
+ renamedPacket1_i[102] renamedPacket1_i[101] renamedPacket1_i[100] renamedPacket1_i[99] 
+ renamedPacket1_i[98] renamedPacket1_i[97] renamedPacket1_i[96] renamedPacket1_i[95] 
+ renamedPacket1_i[94] renamedPacket1_i[93] renamedPacket1_i[92] renamedPacket1_i[91] 
+ renamedPacket1_i[90] renamedPacket1_i[89] renamedPacket1_i[88] renamedPacket1_i[87] 
+ renamedPacket1_i[86] renamedPacket1_i[85] renamedPacket1_i[84] renamedPacket1_i[83] 
+ renamedPacket1_i[82] renamedPacket1_i[81] renamedPacket1_i[80] renamedPacket1_i[79] 
+ renamedPacket1_i[78] renamedPacket1_i[77] renamedPacket1_i[76] renamedPacket1_i[75] 
+ renamedPacket1_i[74] renamedPacket1_i[73] renamedPacket1_i[72] renamedPacket1_i[71] 
+ renamedPacket1_i[70] renamedPacket1_i[69] renamedPacket1_i[68] renamedPacket1_i[67] 
+ renamedPacket1_i[66] renamedPacket1_i[65] renamedPacket1_i[64] renamedPacket1_i[63] 
+ renamedPacket1_i[62] renamedPacket1_i[61] renamedPacket1_i[60] renamedPacket1_i[59] 
+ renamedPacket1_i[58] renamedPacket1_i[57] renamedPacket1_i[56] renamedPacket1_i[55] 
+ renamedPacket1_i[54] renamedPacket1_i[53] renamedPacket1_i[52] renamedPacket1_i[51] 
+ renamedPacket1_i[50] renamedPacket1_i[49] renamedPacket1_i[48] renamedPacket1_i[47] 
+ renamedPacket1_i[46] renamedPacket1_i[45] renamedPacket1_i[44] renamedPacket1_i[43] 
+ renamedPacket1_i[42] renamedPacket1_i[41] renamedPacket1_i[40] renamedPacket1_i[39] 
+ renamedPacket1_i[38] renamedPacket1_i[37] renamedPacket1_i[36] renamedPacket1_i[35] 
+ renamedPacket1_i[34] renamedPacket1_i[33] renamedPacket1_i[32] renamedPacket1_i[31] 
+ renamedPacket1_i[30] renamedPacket1_i[29] renamedPacket1_i[28] renamedPacket1_i[27] 
+ renamedPacket1_i[26] renamedPacket1_i[25] renamedPacket1_i[24] renamedPacket1_i[23] 
+ renamedPacket1_i[22] renamedPacket1_i[21] renamedPacket1_i[20] renamedPacket1_i[19] 
+ renamedPacket1_i[18] renamedPacket1_i[17] renamedPacket1_i[16] renamedPacket1_i[15] 
+ renamedPacket1_i[14] renamedPacket1_i[13] renamedPacket1_i[12] renamedPacket1_i[11] 
+ renamedPacket1_i[10] renamedPacket1_i[9] renamedPacket1_i[8] renamedPacket1_i[7] 
+ renamedPacket1_i[6] renamedPacket1_i[5] renamedPacket1_i[4] renamedPacket1_i[3] 
+ renamedPacket1_i[2] renamedPacket1_i[1] renamedPacket1_i[0] renamedPacket2_i[144] 
+ renamedPacket2_i[143] renamedPacket2_i[142] renamedPacket2_i[141] renamedPacket2_i[140] 
+ renamedPacket2_i[139] renamedPacket2_i[138] renamedPacket2_i[137] renamedPacket2_i[136] 
+ renamedPacket2_i[135] renamedPacket2_i[134] renamedPacket2_i[133] renamedPacket2_i[132] 
+ renamedPacket2_i[131] renamedPacket2_i[130] renamedPacket2_i[129] renamedPacket2_i[128] 
+ renamedPacket2_i[127] renamedPacket2_i[126] renamedPacket2_i[125] renamedPacket2_i[124] 
+ renamedPacket2_i[123] renamedPacket2_i[122] renamedPacket2_i[121] renamedPacket2_i[120] 
+ renamedPacket2_i[119] renamedPacket2_i[118] renamedPacket2_i[117] renamedPacket2_i[116] 
+ renamedPacket2_i[115] renamedPacket2_i[114] renamedPacket2_i[113] renamedPacket2_i[112] 
+ renamedPacket2_i[111] renamedPacket2_i[110] renamedPacket2_i[109] renamedPacket2_i[108] 
+ renamedPacket2_i[107] renamedPacket2_i[106] renamedPacket2_i[105] renamedPacket2_i[104] 
+ renamedPacket2_i[103] renamedPacket2_i[102] renamedPacket2_i[101] renamedPacket2_i[100] 
+ renamedPacket2_i[99] renamedPacket2_i[98] renamedPacket2_i[97] renamedPacket2_i[96] 
+ renamedPacket2_i[95] renamedPacket2_i[94] renamedPacket2_i[93] renamedPacket2_i[92] 
+ renamedPacket2_i[91] renamedPacket2_i[90] renamedPacket2_i[89] renamedPacket2_i[88] 
+ renamedPacket2_i[87] renamedPacket2_i[86] renamedPacket2_i[85] renamedPacket2_i[84] 
+ renamedPacket2_i[83] renamedPacket2_i[82] renamedPacket2_i[81] renamedPacket2_i[80] 
+ renamedPacket2_i[79] renamedPacket2_i[78] renamedPacket2_i[77] renamedPacket2_i[76] 
+ renamedPacket2_i[75] renamedPacket2_i[74] renamedPacket2_i[73] renamedPacket2_i[72] 
+ renamedPacket2_i[71] renamedPacket2_i[70] renamedPacket2_i[69] renamedPacket2_i[68] 
+ renamedPacket2_i[67] renamedPacket2_i[66] renamedPacket2_i[65] renamedPacket2_i[64] 
+ renamedPacket2_i[63] renamedPacket2_i[62] renamedPacket2_i[61] renamedPacket2_i[60] 
+ renamedPacket2_i[59] renamedPacket2_i[58] renamedPacket2_i[57] renamedPacket2_i[56] 
+ renamedPacket2_i[55] renamedPacket2_i[54] renamedPacket2_i[53] renamedPacket2_i[52] 
+ renamedPacket2_i[51] renamedPacket2_i[50] renamedPacket2_i[49] renamedPacket2_i[48] 
+ renamedPacket2_i[47] renamedPacket2_i[46] renamedPacket2_i[45] renamedPacket2_i[44] 
+ renamedPacket2_i[43] renamedPacket2_i[42] renamedPacket2_i[41] renamedPacket2_i[40] 
+ renamedPacket2_i[39] renamedPacket2_i[38] renamedPacket2_i[37] renamedPacket2_i[36] 
+ renamedPacket2_i[35] renamedPacket2_i[34] renamedPacket2_i[33] renamedPacket2_i[32] 
+ renamedPacket2_i[31] renamedPacket2_i[30] renamedPacket2_i[29] renamedPacket2_i[28] 
+ renamedPacket2_i[27] renamedPacket2_i[26] renamedPacket2_i[25] renamedPacket2_i[24] 
+ renamedPacket2_i[23] renamedPacket2_i[22] renamedPacket2_i[21] renamedPacket2_i[20] 
+ renamedPacket2_i[19] renamedPacket2_i[18] renamedPacket2_i[17] renamedPacket2_i[16] 
+ renamedPacket2_i[15] renamedPacket2_i[14] renamedPacket2_i[13] renamedPacket2_i[12] 
+ renamedPacket2_i[11] renamedPacket2_i[10] renamedPacket2_i[9] renamedPacket2_i[8] 
+ renamedPacket2_i[7] renamedPacket2_i[6] renamedPacket2_i[5] renamedPacket2_i[4] 
+ renamedPacket2_i[3] renamedPacket2_i[2] renamedPacket2_i[1] renamedPacket2_i[0] 
+ renamedPacket3_i[144] renamedPacket3_i[143] renamedPacket3_i[142] renamedPacket3_i[141] 
+ renamedPacket3_i[140] renamedPacket3_i[139] renamedPacket3_i[138] renamedPacket3_i[137] 
+ renamedPacket3_i[136] renamedPacket3_i[135] renamedPacket3_i[134] renamedPacket3_i[133] 
+ renamedPacket3_i[132] renamedPacket3_i[131] renamedPacket3_i[130] renamedPacket3_i[129] 
+ renamedPacket3_i[128] renamedPacket3_i[127] renamedPacket3_i[126] renamedPacket3_i[125] 
+ renamedPacket3_i[124] renamedPacket3_i[123] renamedPacket3_i[122] renamedPacket3_i[121] 
+ renamedPacket3_i[120] renamedPacket3_i[119] renamedPacket3_i[118] renamedPacket3_i[117] 
+ renamedPacket3_i[116] renamedPacket3_i[115] renamedPacket3_i[114] renamedPacket3_i[113] 
+ renamedPacket3_i[112] renamedPacket3_i[111] renamedPacket3_i[110] renamedPacket3_i[109] 
+ renamedPacket3_i[108] renamedPacket3_i[107] renamedPacket3_i[106] renamedPacket3_i[105] 
+ renamedPacket3_i[104] renamedPacket3_i[103] renamedPacket3_i[102] renamedPacket3_i[101] 
+ renamedPacket3_i[100] renamedPacket3_i[99] renamedPacket3_i[98] renamedPacket3_i[97] 
+ renamedPacket3_i[96] renamedPacket3_i[95] renamedPacket3_i[94] renamedPacket3_i[93] 
+ renamedPacket3_i[92] renamedPacket3_i[91] renamedPacket3_i[90] renamedPacket3_i[89] 
+ renamedPacket3_i[88] renamedPacket3_i[87] renamedPacket3_i[86] renamedPacket3_i[85] 
+ renamedPacket3_i[84] renamedPacket3_i[83] renamedPacket3_i[82] renamedPacket3_i[81] 
+ renamedPacket3_i[80] renamedPacket3_i[79] renamedPacket3_i[78] renamedPacket3_i[77] 
+ renamedPacket3_i[76] renamedPacket3_i[75] renamedPacket3_i[74] renamedPacket3_i[73] 
+ renamedPacket3_i[72] renamedPacket3_i[71] renamedPacket3_i[70] renamedPacket3_i[69] 
+ renamedPacket3_i[68] renamedPacket3_i[67] renamedPacket3_i[66] renamedPacket3_i[65] 
+ renamedPacket3_i[64] renamedPacket3_i[63] renamedPacket3_i[62] renamedPacket3_i[61] 
+ renamedPacket3_i[60] renamedPacket3_i[59] renamedPacket3_i[58] renamedPacket3_i[57] 
+ renamedPacket3_i[56] renamedPacket3_i[55] renamedPacket3_i[54] renamedPacket3_i[53] 
+ renamedPacket3_i[52] renamedPacket3_i[51] renamedPacket3_i[50] renamedPacket3_i[49] 
+ renamedPacket3_i[48] renamedPacket3_i[47] renamedPacket3_i[46] renamedPacket3_i[45] 
+ renamedPacket3_i[44] renamedPacket3_i[43] renamedPacket3_i[42] renamedPacket3_i[41] 
+ renamedPacket3_i[40] renamedPacket3_i[39] renamedPacket3_i[38] renamedPacket3_i[37] 
+ renamedPacket3_i[36] renamedPacket3_i[35] renamedPacket3_i[34] renamedPacket3_i[33] 
+ renamedPacket3_i[32] renamedPacket3_i[31] renamedPacket3_i[30] renamedPacket3_i[29] 
+ renamedPacket3_i[28] renamedPacket3_i[27] renamedPacket3_i[26] renamedPacket3_i[25] 
+ renamedPacket3_i[24] renamedPacket3_i[23] renamedPacket3_i[22] renamedPacket3_i[21] 
+ renamedPacket3_i[20] renamedPacket3_i[19] renamedPacket3_i[18] renamedPacket3_i[17] 
+ renamedPacket3_i[16] renamedPacket3_i[15] renamedPacket3_i[14] renamedPacket3_i[13] 
+ renamedPacket3_i[12] renamedPacket3_i[11] renamedPacket3_i[10] renamedPacket3_i[9] 
+ renamedPacket3_i[8] renamedPacket3_i[7] renamedPacket3_i[6] renamedPacket3_i[5] 
+ renamedPacket3_i[4] renamedPacket3_i[3] renamedPacket3_i[2] renamedPacket3_i[1] 
+ renamedPacket3_i[0] loadQueueCnt_i[5] loadQueueCnt_i[4] loadQueueCnt_i[3] loadQueueCnt_i[2] 
+ loadQueueCnt_i[1] loadQueueCnt_i[0] storeQueueCnt_i[5] storeQueueCnt_i[4] storeQueueCnt_i[3] 
+ storeQueueCnt_i[2] storeQueueCnt_i[1] storeQueueCnt_i[0] issueQueueCnt_i[5] issueQueueCnt_i[4] 
+ issueQueueCnt_i[3] issueQueueCnt_i[2] issueQueueCnt_i[1] issueQueueCnt_i[0] activeListCnt_i[7] 
+ activeListCnt_i[6] activeListCnt_i[5] activeListCnt_i[4] activeListCnt_i[3] activeListCnt_i[2] 
+ activeListCnt_i[1] activeListCnt_i[0] issueqPacket0_o[138] issueqPacket0_o[137] 
+ issueqPacket0_o[136] issueqPacket0_o[135] issueqPacket0_o[134] issueqPacket0_o[133] 
+ issueqPacket0_o[132] issueqPacket0_o[131] issueqPacket0_o[130] issueqPacket0_o[129] 
+ issueqPacket0_o[128] issueqPacket0_o[127] issueqPacket0_o[126] issueqPacket0_o[125] 
+ issueqPacket0_o[124] issueqPacket0_o[123] issueqPacket0_o[122] issueqPacket0_o[121] 
+ issueqPacket0_o[120] issueqPacket0_o[119] issueqPacket0_o[118] issueqPacket0_o[117] 
+ issueqPacket0_o[116] issueqPacket0_o[115] issueqPacket0_o[114] issueqPacket0_o[113] 
+ issueqPacket0_o[112] issueqPacket0_o[111] issueqPacket0_o[110] issueqPacket0_o[109] 
+ issueqPacket0_o[108] issueqPacket0_o[107] issueqPacket0_o[106] issueqPacket0_o[105] 
+ issueqPacket0_o[104] issueqPacket0_o[103] issueqPacket0_o[102] issueqPacket0_o[101] 
+ issueqPacket0_o[100] issueqPacket0_o[99] issueqPacket0_o[98] issueqPacket0_o[97] 
+ issueqPacket0_o[96] issueqPacket0_o[95] issueqPacket0_o[94] issueqPacket0_o[93] 
+ issueqPacket0_o[92] issueqPacket0_o[91] issueqPacket0_o[90] issueqPacket0_o[89] 
+ issueqPacket0_o[88] issueqPacket0_o[87] issueqPacket0_o[86] issueqPacket0_o[85] 
+ issueqPacket0_o[84] issueqPacket0_o[83] issueqPacket0_o[82] issueqPacket0_o[81] 
+ issueqPacket0_o[80] issueqPacket0_o[79] issueqPacket0_o[78] issueqPacket0_o[77] 
+ issueqPacket0_o[76] issueqPacket0_o[75] issueqPacket0_o[74] issueqPacket0_o[73] 
+ issueqPacket0_o[72] issueqPacket0_o[71] issueqPacket0_o[70] issueqPacket0_o[69] 
+ issueqPacket0_o[68] issueqPacket0_o[67] issueqPacket0_o[66] issueqPacket0_o[65] 
+ issueqPacket0_o[64] issueqPacket0_o[63] issueqPacket0_o[62] issueqPacket0_o[61] 
+ issueqPacket0_o[60] issueqPacket0_o[59] issueqPacket0_o[58] issueqPacket0_o[57] 
+ issueqPacket0_o[56] issueqPacket0_o[55] issueqPacket0_o[54] issueqPacket0_o[53] 
+ issueqPacket0_o[52] issueqPacket0_o[51] issueqPacket0_o[50] issueqPacket0_o[49] 
+ issueqPacket0_o[48] issueqPacket0_o[47] issueqPacket0_o[46] issueqPacket0_o[45] 
+ issueqPacket0_o[44] issueqPacket0_o[43] issueqPacket0_o[42] issueqPacket0_o[41] 
+ issueqPacket0_o[40] issueqPacket0_o[39] issueqPacket0_o[38] issueqPacket0_o[37] 
+ issueqPacket0_o[36] issueqPacket0_o[35] issueqPacket0_o[34] issueqPacket0_o[33] 
+ issueqPacket0_o[32] issueqPacket0_o[31] issueqPacket0_o[30] issueqPacket0_o[29] 
+ issueqPacket0_o[28] issueqPacket0_o[27] issueqPacket0_o[26] issueqPacket0_o[25] 
+ issueqPacket0_o[24] issueqPacket0_o[23] issueqPacket0_o[22] issueqPacket0_o[21] 
+ issueqPacket0_o[20] issueqPacket0_o[19] issueqPacket0_o[18] issueqPacket0_o[17] 
+ issueqPacket0_o[16] issueqPacket0_o[15] issueqPacket0_o[14] issueqPacket0_o[13] 
+ issueqPacket0_o[12] issueqPacket0_o[11] issueqPacket0_o[10] issueqPacket0_o[9] 
+ issueqPacket0_o[8] issueqPacket0_o[7] issueqPacket0_o[6] issueqPacket0_o[5] issueqPacket0_o[4] 
+ issueqPacket0_o[3] issueqPacket0_o[2] issueqPacket0_o[1] issueqPacket0_o[0] issueqPacket1_o[138] 
+ issueqPacket1_o[137] issueqPacket1_o[136] issueqPacket1_o[135] issueqPacket1_o[134] 
+ issueqPacket1_o[133] issueqPacket1_o[132] issueqPacket1_o[131] issueqPacket1_o[130] 
+ issueqPacket1_o[129] issueqPacket1_o[128] issueqPacket1_o[127] issueqPacket1_o[126] 
+ issueqPacket1_o[125] issueqPacket1_o[124] issueqPacket1_o[123] issueqPacket1_o[122] 
+ issueqPacket1_o[121] issueqPacket1_o[120] issueqPacket1_o[119] issueqPacket1_o[118] 
+ issueqPacket1_o[117] issueqPacket1_o[116] issueqPacket1_o[115] issueqPacket1_o[114] 
+ issueqPacket1_o[113] issueqPacket1_o[112] issueqPacket1_o[111] issueqPacket1_o[110] 
+ issueqPacket1_o[109] issueqPacket1_o[108] issueqPacket1_o[107] issueqPacket1_o[106] 
+ issueqPacket1_o[105] issueqPacket1_o[104] issueqPacket1_o[103] issueqPacket1_o[102] 
+ issueqPacket1_o[101] issueqPacket1_o[100] issueqPacket1_o[99] issueqPacket1_o[98] 
+ issueqPacket1_o[97] issueqPacket1_o[96] issueqPacket1_o[95] issueqPacket1_o[94] 
+ issueqPacket1_o[93] issueqPacket1_o[92] issueqPacket1_o[91] issueqPacket1_o[90] 
+ issueqPacket1_o[89] issueqPacket1_o[88] issueqPacket1_o[87] issueqPacket1_o[86] 
+ issueqPacket1_o[85] issueqPacket1_o[84] issueqPacket1_o[83] issueqPacket1_o[82] 
+ issueqPacket1_o[81] issueqPacket1_o[80] issueqPacket1_o[79] issueqPacket1_o[78] 
+ issueqPacket1_o[77] issueqPacket1_o[76] issueqPacket1_o[75] issueqPacket1_o[74] 
+ issueqPacket1_o[73] issueqPacket1_o[72] issueqPacket1_o[71] issueqPacket1_o[70] 
+ issueqPacket1_o[69] issueqPacket1_o[68] issueqPacket1_o[67] issueqPacket1_o[66] 
+ issueqPacket1_o[65] issueqPacket1_o[64] issueqPacket1_o[63] issueqPacket1_o[62] 
+ issueqPacket1_o[61] issueqPacket1_o[60] issueqPacket1_o[59] issueqPacket1_o[58] 
+ issueqPacket1_o[57] issueqPacket1_o[56] issueqPacket1_o[55] issueqPacket1_o[54] 
+ issueqPacket1_o[53] issueqPacket1_o[52] issueqPacket1_o[51] issueqPacket1_o[50] 
+ issueqPacket1_o[49] issueqPacket1_o[48] issueqPacket1_o[47] issueqPacket1_o[46] 
+ issueqPacket1_o[45] issueqPacket1_o[44] issueqPacket1_o[43] issueqPacket1_o[42] 
+ issueqPacket1_o[41] issueqPacket1_o[40] issueqPacket1_o[39] issueqPacket1_o[38] 
+ issueqPacket1_o[37] issueqPacket1_o[36] issueqPacket1_o[35] issueqPacket1_o[34] 
+ issueqPacket1_o[33] issueqPacket1_o[32] issueqPacket1_o[31] issueqPacket1_o[30] 
+ issueqPacket1_o[29] issueqPacket1_o[28] issueqPacket1_o[27] issueqPacket1_o[26] 
+ issueqPacket1_o[25] issueqPacket1_o[24] issueqPacket1_o[23] issueqPacket1_o[22] 
+ issueqPacket1_o[21] issueqPacket1_o[20] issueqPacket1_o[19] issueqPacket1_o[18] 
+ issueqPacket1_o[17] issueqPacket1_o[16] issueqPacket1_o[15] issueqPacket1_o[14] 
+ issueqPacket1_o[13] issueqPacket1_o[12] issueqPacket1_o[11] issueqPacket1_o[10] 
+ issueqPacket1_o[9] issueqPacket1_o[8] issueqPacket1_o[7] issueqPacket1_o[6] issueqPacket1_o[5] 
+ issueqPacket1_o[4] issueqPacket1_o[3] issueqPacket1_o[2] issueqPacket1_o[1] issueqPacket1_o[0] 
+ issueqPacket2_o[138] issueqPacket2_o[137] issueqPacket2_o[136] issueqPacket2_o[135] 
+ issueqPacket2_o[134] issueqPacket2_o[133] issueqPacket2_o[132] issueqPacket2_o[131] 
+ issueqPacket2_o[130] issueqPacket2_o[129] issueqPacket2_o[128] issueqPacket2_o[127] 
+ issueqPacket2_o[126] issueqPacket2_o[125] issueqPacket2_o[124] issueqPacket2_o[123] 
+ issueqPacket2_o[122] issueqPacket2_o[121] issueqPacket2_o[120] issueqPacket2_o[119] 
+ issueqPacket2_o[118] issueqPacket2_o[117] issueqPacket2_o[116] issueqPacket2_o[115] 
+ issueqPacket2_o[114] issueqPacket2_o[113] issueqPacket2_o[112] issueqPacket2_o[111] 
+ issueqPacket2_o[110] issueqPacket2_o[109] issueqPacket2_o[108] issueqPacket2_o[107] 
+ issueqPacket2_o[106] issueqPacket2_o[105] issueqPacket2_o[104] issueqPacket2_o[103] 
+ issueqPacket2_o[102] issueqPacket2_o[101] issueqPacket2_o[100] issueqPacket2_o[99] 
+ issueqPacket2_o[98] issueqPacket2_o[97] issueqPacket2_o[96] issueqPacket2_o[95] 
+ issueqPacket2_o[94] issueqPacket2_o[93] issueqPacket2_o[92] issueqPacket2_o[91] 
+ issueqPacket2_o[90] issueqPacket2_o[89] issueqPacket2_o[88] issueqPacket2_o[87] 
+ issueqPacket2_o[86] issueqPacket2_o[85] issueqPacket2_o[84] issueqPacket2_o[83] 
+ issueqPacket2_o[82] issueqPacket2_o[81] issueqPacket2_o[80] issueqPacket2_o[79] 
+ issueqPacket2_o[78] issueqPacket2_o[77] issueqPacket2_o[76] issueqPacket2_o[75] 
+ issueqPacket2_o[74] issueqPacket2_o[73] issueqPacket2_o[72] issueqPacket2_o[71] 
+ issueqPacket2_o[70] issueqPacket2_o[69] issueqPacket2_o[68] issueqPacket2_o[67] 
+ issueqPacket2_o[66] issueqPacket2_o[65] issueqPacket2_o[64] issueqPacket2_o[63] 
+ issueqPacket2_o[62] issueqPacket2_o[61] issueqPacket2_o[60] issueqPacket2_o[59] 
+ issueqPacket2_o[58] issueqPacket2_o[57] issueqPacket2_o[56] issueqPacket2_o[55] 
+ issueqPacket2_o[54] issueqPacket2_o[53] issueqPacket2_o[52] issueqPacket2_o[51] 
+ issueqPacket2_o[50] issueqPacket2_o[49] issueqPacket2_o[48] issueqPacket2_o[47] 
+ issueqPacket2_o[46] issueqPacket2_o[45] issueqPacket2_o[44] issueqPacket2_o[43] 
+ issueqPacket2_o[42] issueqPacket2_o[41] issueqPacket2_o[40] issueqPacket2_o[39] 
+ issueqPacket2_o[38] issueqPacket2_o[37] issueqPacket2_o[36] issueqPacket2_o[35] 
+ issueqPacket2_o[34] issueqPacket2_o[33] issueqPacket2_o[32] issueqPacket2_o[31] 
+ issueqPacket2_o[30] issueqPacket2_o[29] issueqPacket2_o[28] issueqPacket2_o[27] 
+ issueqPacket2_o[26] issueqPacket2_o[25] issueqPacket2_o[24] issueqPacket2_o[23] 
+ issueqPacket2_o[22] issueqPacket2_o[21] issueqPacket2_o[20] issueqPacket2_o[19] 
+ issueqPacket2_o[18] issueqPacket2_o[17] issueqPacket2_o[16] issueqPacket2_o[15] 
+ issueqPacket2_o[14] issueqPacket2_o[13] issueqPacket2_o[12] issueqPacket2_o[11] 
+ issueqPacket2_o[10] issueqPacket2_o[9] issueqPacket2_o[8] issueqPacket2_o[7] issueqPacket2_o[6] 
+ issueqPacket2_o[5] issueqPacket2_o[4] issueqPacket2_o[3] issueqPacket2_o[2] issueqPacket2_o[1] 
+ issueqPacket2_o[0] issueqPacket3_o[138] issueqPacket3_o[137] issueqPacket3_o[136] 
+ issueqPacket3_o[135] issueqPacket3_o[134] issueqPacket3_o[133] issueqPacket3_o[132] 
+ issueqPacket3_o[131] issueqPacket3_o[130] issueqPacket3_o[129] issueqPacket3_o[128] 
+ issueqPacket3_o[127] issueqPacket3_o[126] issueqPacket3_o[125] issueqPacket3_o[124] 
+ issueqPacket3_o[123] issueqPacket3_o[122] issueqPacket3_o[121] issueqPacket3_o[120] 
+ issueqPacket3_o[119] issueqPacket3_o[118] issueqPacket3_o[117] issueqPacket3_o[116] 
+ issueqPacket3_o[115] issueqPacket3_o[114] issueqPacket3_o[113] issueqPacket3_o[112] 
+ issueqPacket3_o[111] issueqPacket3_o[110] issueqPacket3_o[109] issueqPacket3_o[108] 
+ issueqPacket3_o[107] issueqPacket3_o[106] issueqPacket3_o[105] issueqPacket3_o[104] 
+ issueqPacket3_o[103] issueqPacket3_o[102] issueqPacket3_o[101] issueqPacket3_o[100] 
+ issueqPacket3_o[99] issueqPacket3_o[98] issueqPacket3_o[97] issueqPacket3_o[96] 
+ issueqPacket3_o[95] issueqPacket3_o[94] issueqPacket3_o[93] issueqPacket3_o[92] 
+ issueqPacket3_o[91] issueqPacket3_o[90] issueqPacket3_o[89] issueqPacket3_o[88] 
+ issueqPacket3_o[87] issueqPacket3_o[86] issueqPacket3_o[85] issueqPacket3_o[84] 
+ issueqPacket3_o[83] issueqPacket3_o[82] issueqPacket3_o[81] issueqPacket3_o[80] 
+ issueqPacket3_o[79] issueqPacket3_o[78] issueqPacket3_o[77] issueqPacket3_o[76] 
+ issueqPacket3_o[75] issueqPacket3_o[74] issueqPacket3_o[73] issueqPacket3_o[72] 
+ issueqPacket3_o[71] issueqPacket3_o[70] issueqPacket3_o[69] issueqPacket3_o[68] 
+ issueqPacket3_o[67] issueqPacket3_o[66] issueqPacket3_o[65] issueqPacket3_o[64] 
+ issueqPacket3_o[63] issueqPacket3_o[62] issueqPacket3_o[61] issueqPacket3_o[60] 
+ issueqPacket3_o[59] issueqPacket3_o[58] issueqPacket3_o[57] issueqPacket3_o[56] 
+ issueqPacket3_o[55] issueqPacket3_o[54] issueqPacket3_o[53] issueqPacket3_o[52] 
+ issueqPacket3_o[51] issueqPacket3_o[50] issueqPacket3_o[49] issueqPacket3_o[48] 
+ issueqPacket3_o[47] issueqPacket3_o[46] issueqPacket3_o[45] issueqPacket3_o[44] 
+ issueqPacket3_o[43] issueqPacket3_o[42] issueqPacket3_o[41] issueqPacket3_o[40] 
+ issueqPacket3_o[39] issueqPacket3_o[38] issueqPacket3_o[37] issueqPacket3_o[36] 
+ issueqPacket3_o[35] issueqPacket3_o[34] issueqPacket3_o[33] issueqPacket3_o[32] 
+ issueqPacket3_o[31] issueqPacket3_o[30] issueqPacket3_o[29] issueqPacket3_o[28] 
+ issueqPacket3_o[27] issueqPacket3_o[26] issueqPacket3_o[25] issueqPacket3_o[24] 
+ issueqPacket3_o[23] issueqPacket3_o[22] issueqPacket3_o[21] issueqPacket3_o[20] 
+ issueqPacket3_o[19] issueqPacket3_o[18] issueqPacket3_o[17] issueqPacket3_o[16] 
+ issueqPacket3_o[15] issueqPacket3_o[14] issueqPacket3_o[13] issueqPacket3_o[12] 
+ issueqPacket3_o[11] issueqPacket3_o[10] issueqPacket3_o[9] issueqPacket3_o[8] 
+ issueqPacket3_o[7] issueqPacket3_o[6] issueqPacket3_o[5] issueqPacket3_o[4] issueqPacket3_o[3] 
+ issueqPacket3_o[2] issueqPacket3_o[1] issueqPacket3_o[0] alPacket0_o[54] alPacket0_o[53] 
+ alPacket0_o[52] alPacket0_o[51] alPacket0_o[50] alPacket0_o[49] alPacket0_o[48] 
+ alPacket0_o[47] alPacket0_o[46] alPacket0_o[45] alPacket0_o[44] alPacket0_o[43] 
+ alPacket0_o[42] alPacket0_o[41] alPacket0_o[40] alPacket0_o[39] alPacket0_o[38] 
+ alPacket0_o[37] alPacket0_o[36] alPacket0_o[35] alPacket0_o[34] alPacket0_o[33] 
+ alPacket0_o[32] alPacket0_o[31] alPacket0_o[30] alPacket0_o[29] alPacket0_o[28] 
+ alPacket0_o[27] alPacket0_o[26] alPacket0_o[25] alPacket0_o[24] alPacket0_o[23] 
+ alPacket0_o[22] alPacket0_o[21] alPacket0_o[20] alPacket0_o[19] alPacket0_o[18] 
+ alPacket0_o[17] alPacket0_o[16] alPacket0_o[15] alPacket0_o[14] alPacket0_o[13] 
+ alPacket0_o[12] alPacket0_o[11] alPacket0_o[10] alPacket0_o[9] alPacket0_o[8] 
+ alPacket0_o[7] alPacket0_o[6] alPacket0_o[5] alPacket0_o[4] alPacket0_o[3] alPacket0_o[2] 
+ alPacket0_o[1] alPacket0_o[0] alPacket1_o[54] alPacket1_o[53] alPacket1_o[52] 
+ alPacket1_o[51] alPacket1_o[50] alPacket1_o[49] alPacket1_o[48] alPacket1_o[47] 
+ alPacket1_o[46] alPacket1_o[45] alPacket1_o[44] alPacket1_o[43] alPacket1_o[42] 
+ alPacket1_o[41] alPacket1_o[40] alPacket1_o[39] alPacket1_o[38] alPacket1_o[37] 
+ alPacket1_o[36] alPacket1_o[35] alPacket1_o[34] alPacket1_o[33] alPacket1_o[32] 
+ alPacket1_o[31] alPacket1_o[30] alPacket1_o[29] alPacket1_o[28] alPacket1_o[27] 
+ alPacket1_o[26] alPacket1_o[25] alPacket1_o[24] alPacket1_o[23] alPacket1_o[22] 
+ alPacket1_o[21] alPacket1_o[20] alPacket1_o[19] alPacket1_o[18] alPacket1_o[17] 
+ alPacket1_o[16] alPacket1_o[15] alPacket1_o[14] alPacket1_o[13] alPacket1_o[12] 
+ alPacket1_o[11] alPacket1_o[10] alPacket1_o[9] alPacket1_o[8] alPacket1_o[7] alPacket1_o[6] 
+ alPacket1_o[5] alPacket1_o[4] alPacket1_o[3] alPacket1_o[2] alPacket1_o[1] alPacket1_o[0] 
+ alPacket2_o[54] alPacket2_o[53] alPacket2_o[52] alPacket2_o[51] alPacket2_o[50] 
+ alPacket2_o[49] alPacket2_o[48] alPacket2_o[47] alPacket2_o[46] alPacket2_o[45] 
+ alPacket2_o[44] alPacket2_o[43] alPacket2_o[42] alPacket2_o[41] alPacket2_o[40] 
+ alPacket2_o[39] alPacket2_o[38] alPacket2_o[37] alPacket2_o[36] alPacket2_o[35] 
+ alPacket2_o[34] alPacket2_o[33] alPacket2_o[32] alPacket2_o[31] alPacket2_o[30] 
+ alPacket2_o[29] alPacket2_o[28] alPacket2_o[27] alPacket2_o[26] alPacket2_o[25] 
+ alPacket2_o[24] alPacket2_o[23] alPacket2_o[22] alPacket2_o[21] alPacket2_o[20] 
+ alPacket2_o[19] alPacket2_o[18] alPacket2_o[17] alPacket2_o[16] alPacket2_o[15] 
+ alPacket2_o[14] alPacket2_o[13] alPacket2_o[12] alPacket2_o[11] alPacket2_o[10] 
+ alPacket2_o[9] alPacket2_o[8] alPacket2_o[7] alPacket2_o[6] alPacket2_o[5] alPacket2_o[4] 
+ alPacket2_o[3] alPacket2_o[2] alPacket2_o[1] alPacket2_o[0] alPacket3_o[54] alPacket3_o[53] 
+ alPacket3_o[52] alPacket3_o[51] alPacket3_o[50] alPacket3_o[49] alPacket3_o[48] 
+ alPacket3_o[47] alPacket3_o[46] alPacket3_o[45] alPacket3_o[44] alPacket3_o[43] 
+ alPacket3_o[42] alPacket3_o[41] alPacket3_o[40] alPacket3_o[39] alPacket3_o[38] 
+ alPacket3_o[37] alPacket3_o[36] alPacket3_o[35] alPacket3_o[34] alPacket3_o[33] 
+ alPacket3_o[32] alPacket3_o[31] alPacket3_o[30] alPacket3_o[29] alPacket3_o[28] 
+ alPacket3_o[27] alPacket3_o[26] alPacket3_o[25] alPacket3_o[24] alPacket3_o[23] 
+ alPacket3_o[22] alPacket3_o[21] alPacket3_o[20] alPacket3_o[19] alPacket3_o[18] 
+ alPacket3_o[17] alPacket3_o[16] alPacket3_o[15] alPacket3_o[14] alPacket3_o[13] 
+ alPacket3_o[12] alPacket3_o[11] alPacket3_o[10] alPacket3_o[9] alPacket3_o[8] 
+ alPacket3_o[7] alPacket3_o[6] alPacket3_o[5] alPacket3_o[4] alPacket3_o[3] alPacket3_o[2] 
+ alPacket3_o[1] alPacket3_o[0] lsqPacket0_o[5] lsqPacket0_o[4] lsqPacket0_o[3] 
+ lsqPacket0_o[2] lsqPacket0_o[1] lsqPacket0_o[0] lsqPacket1_o[5] lsqPacket1_o[4] 
+ lsqPacket1_o[3] lsqPacket1_o[2] lsqPacket1_o[1] lsqPacket1_o[0] lsqPacket2_o[5] 
+ lsqPacket2_o[4] lsqPacket2_o[3] lsqPacket2_o[2] lsqPacket2_o[1] lsqPacket2_o[0] 
+ lsqPacket3_o[5] lsqPacket3_o[4] lsqPacket3_o[3] lsqPacket3_o[2] lsqPacket3_o[1] 
+ lsqPacket3_o[0] updatedBranchMask0_o[3] updatedBranchMask0_o[2] updatedBranchMask0_o[1] 
+ updatedBranchMask0_o[0] updatedBranchMask1_o[3] updatedBranchMask1_o[2] updatedBranchMask1_o[1] 
+ updatedBranchMask1_o[0] updatedBranchMask2_o[3] updatedBranchMask2_o[2] updatedBranchMask2_o[1] 
+ updatedBranchMask2_o[0] updatedBranchMask3_o[3] updatedBranchMask3_o[2] updatedBranchMask3_o[1] 
+ updatedBranchMask3_o[0] backEndReady_o stallfrontEnd_o 
XU1547 storeQueueCnt_i[5] n1517 N35 AND2X1_RVT 
XU1546 storeQueueCnt_i[5] n1517 N34 XOR2X1_RVT 
XU1545 storeQueueCnt_i[4] n1516 n1517 AND2X1_RVT 
XU1544 storeQueueCnt_i[4] n1516 N33 XOR2X1_RVT 
XU1543 storeQueueCnt_i[3] n1515 n1516 AND2X1_RVT 
XU1542 n1515 storeQueueCnt_i[3] N32 XOR2X1_RVT 